
---------- Begin Simulation Statistics ----------
final_tick                               4821920288895                       # Number of ticks from beginning of simulation (restored from checkpoints and never reset)
host_inst_rate                                 122512                       # Simulator instruction rate (inst/s)
host_mem_usage                                1188024                       # Number of bytes of host memory used
host_op_rate                                   311340                       # Simulator op (including micro ops) rate (op/s)
host_seconds                                 11175.49                       # Real time elapsed on the host
host_tick_rate                              431472788                       # Simulator tick rate (ticks/s)
sim_freq                                 1000000000000                       # Frequency of simulated ticks
sim_insts                                  1369136269                       # Number of instructions simulated
sim_ops                                    3479379873                       # Number of ops (including micro ops) simulated
sim_seconds                                  4.821920                       # Number of seconds simulated
sim_ticks                                4821920288895                       # Number of ticks simulated
system.cpu.branchPred.BTBCorrect                    0                       # Number of correct BTB predictions (this stat may not work properly.
system.cpu.branchPred.BTBHitPct                   nan                       # BTB Hit Percentage
system.cpu.branchPred.BTBHits                       0                       # Number of BTB hits
system.cpu.branchPred.BTBLookups                    0                       # Number of BTB lookups
system.cpu.branchPred.RASInCorrect              19985                       # Number of incorrect RAS predictions.
system.cpu.branchPred.condIncorrect           3997156                       # Number of conditional branches incorrect
system.cpu.branchPred.condPredicted         464567127                       # Number of conditional branches predicted
system.cpu.branchPred.indirectHits          416492299                       # Number of indirect target hits.
system.cpu.branchPred.indirectLookups       427229027                       # Number of indirect predictor lookups.
system.cpu.branchPred.indirectMisses         10736728                       # Number of indirect misses.
system.cpu.branchPred.lookups               486105540                       # Number of BP lookups
system.cpu.branchPred.usedRAS                10316204                       # Number of times the RAS was used to get a target.
system.cpu.branchPredindirectMispredicted      2672770                       # Number of mispredicted indirect branches.
system.cpu.cc_regfile_reads                2253054165                       # number of cc regfile reads
system.cpu.cc_regfile_writes                956243531                       # number of cc regfile writes
system.cpu.commit.amos                              0                       # Number of atomic instructions committed
system.cpu.commit.branchMispredicts           4000933                       # The number of times a branch was mispredicted
system.cpu.commit.branches                  453253668                       # Number of branches committed
system.cpu.commit.bw_lim_events             343261729                       # number cycles where commit BW limit reached
system.cpu.commit.commitNonSpecStalls         2205477                       # The number of times commit has been forced to stall to communicate backwards
system.cpu.commit.commitSquashedInsts       151730169                       # The number of squashed insts skipped by commit
system.cpu.commit.committedInsts           1369136269                       # Number of instructions committed
system.cpu.commit.committedOps             3479379873                       # Number of ops (including micro ops) committed
system.cpu.commit.committed_per_cycle::samples    748874883                       # Number of insts commited each cycle
system.cpu.commit.committed_per_cycle::mean     4.646143                       # Number of insts commited each cycle
system.cpu.commit.committed_per_cycle::stdev     3.416219                       # Number of insts commited each cycle
system.cpu.commit.committed_per_cycle::underflows            0      0.00%      0.00% # Number of insts commited each cycle
system.cpu.commit.committed_per_cycle::0    187528566     25.04%     25.04% # Number of insts commited each cycle
system.cpu.commit.committed_per_cycle::1     35887893      4.79%     29.83% # Number of insts commited each cycle
system.cpu.commit.committed_per_cycle::2      9985963      1.33%     31.17% # Number of insts commited each cycle
system.cpu.commit.committed_per_cycle::3     92824826     12.40%     43.56% # Number of insts commited each cycle
system.cpu.commit.committed_per_cycle::4      6689443      0.89%     44.46% # Number of insts commited each cycle
system.cpu.commit.committed_per_cycle::5     66585698      8.89%     53.35% # Number of insts commited each cycle
system.cpu.commit.committed_per_cycle::6      3509873      0.47%     53.82% # Number of insts commited each cycle
system.cpu.commit.committed_per_cycle::7      2600892      0.35%     54.16% # Number of insts commited each cycle
system.cpu.commit.committed_per_cycle::8    343261729     45.84%    100.00% # Number of insts commited each cycle
system.cpu.commit.committed_per_cycle::overflows            0      0.00%    100.00% # Number of insts commited each cycle
system.cpu.commit.committed_per_cycle::min_value            0                       # Number of insts commited each cycle
system.cpu.commit.committed_per_cycle::max_value            8                       # Number of insts commited each cycle
system.cpu.commit.committed_per_cycle::total    748874883                       # Number of insts commited each cycle
system.cpu.commit.fp_insts                      41305                       # Number of committed floating point instructions.
system.cpu.commit.function_calls              6830272                       # Number of function calls committed.
system.cpu.commit.int_insts                3093421284                       # Number of committed integer instructions.
system.cpu.commit.loads                     426858402                       # Number of loads committed
system.cpu.commit.membars                     1213140                       # Number of memory barriers committed
system.cpu.commit.op_class_0::No_OpClass     17699322      0.51%      0.51% # Class of committed instruction
system.cpu.commit.op_class_0::IntAlu       3005052088     86.37%     86.88% # Class of committed instruction
system.cpu.commit.op_class_0::IntMult          326690      0.01%     86.89% # Class of committed instruction
system.cpu.commit.op_class_0::IntDiv            31565      0.00%     86.89% # Class of committed instruction
system.cpu.commit.op_class_0::FloatAdd            759      0.00%     86.89% # Class of committed instruction
system.cpu.commit.op_class_0::FloatCmp              0      0.00%     86.89% # Class of committed instruction
system.cpu.commit.op_class_0::FloatCvt             16      0.00%     86.89% # Class of committed instruction
system.cpu.commit.op_class_0::FloatMult             0      0.00%     86.89% # Class of committed instruction
system.cpu.commit.op_class_0::FloatMultAcc            0      0.00%     86.89% # Class of committed instruction
system.cpu.commit.op_class_0::FloatDiv              0      0.00%     86.89% # Class of committed instruction
system.cpu.commit.op_class_0::FloatMisc             0      0.00%     86.89% # Class of committed instruction
system.cpu.commit.op_class_0::FloatSqrt             0      0.00%     86.89% # Class of committed instruction
system.cpu.commit.op_class_0::SimdAdd            1308      0.00%     86.89% # Class of committed instruction
system.cpu.commit.op_class_0::SimdAddAcc            0      0.00%     86.89% # Class of committed instruction
system.cpu.commit.op_class_0::SimdAlu            4052      0.00%     86.89% # Class of committed instruction
system.cpu.commit.op_class_0::SimdCmp               0      0.00%     86.89% # Class of committed instruction
system.cpu.commit.op_class_0::SimdCvt            9586      0.00%     86.89% # Class of committed instruction
system.cpu.commit.op_class_0::SimdMisc          13059      0.00%     86.89% # Class of committed instruction
system.cpu.commit.op_class_0::SimdMult              0      0.00%     86.89% # Class of committed instruction
system.cpu.commit.op_class_0::SimdMultAcc            0      0.00%     86.89% # Class of committed instruction
system.cpu.commit.op_class_0::SimdShift           616      0.00%     86.89% # Class of committed instruction
system.cpu.commit.op_class_0::SimdShiftAcc            0      0.00%     86.89% # Class of committed instruction
system.cpu.commit.op_class_0::SimdDiv               0      0.00%     86.89% # Class of committed instruction
system.cpu.commit.op_class_0::SimdSqrt              0      0.00%     86.89% # Class of committed instruction
system.cpu.commit.op_class_0::SimdFloatAdd            0      0.00%     86.89% # Class of committed instruction
system.cpu.commit.op_class_0::SimdFloatAlu            0      0.00%     86.89% # Class of committed instruction
system.cpu.commit.op_class_0::SimdFloatCmp            0      0.00%     86.89% # Class of committed instruction
system.cpu.commit.op_class_0::SimdFloatCvt            0      0.00%     86.89% # Class of committed instruction
system.cpu.commit.op_class_0::SimdFloatDiv            0      0.00%     86.89% # Class of committed instruction
system.cpu.commit.op_class_0::SimdFloatMisc            0      0.00%     86.89% # Class of committed instruction
system.cpu.commit.op_class_0::SimdFloatMult            0      0.00%     86.89% # Class of committed instruction
system.cpu.commit.op_class_0::SimdFloatMultAcc            0      0.00%     86.89% # Class of committed instruction
system.cpu.commit.op_class_0::SimdFloatSqrt            0      0.00%     86.89% # Class of committed instruction
system.cpu.commit.op_class_0::SimdReduceAdd            0      0.00%     86.89% # Class of committed instruction
system.cpu.commit.op_class_0::SimdReduceAlu            0      0.00%     86.89% # Class of committed instruction
system.cpu.commit.op_class_0::SimdReduceCmp            0      0.00%     86.89% # Class of committed instruction
system.cpu.commit.op_class_0::SimdFloatReduceAdd            0      0.00%     86.89% # Class of committed instruction
system.cpu.commit.op_class_0::SimdFloatReduceCmp            0      0.00%     86.89% # Class of committed instruction
system.cpu.commit.op_class_0::SimdAes               0      0.00%     86.89% # Class of committed instruction
system.cpu.commit.op_class_0::SimdAesMix            0      0.00%     86.89% # Class of committed instruction
system.cpu.commit.op_class_0::SimdSha1Hash            0      0.00%     86.89% # Class of committed instruction
system.cpu.commit.op_class_0::SimdSha1Hash2            0      0.00%     86.89% # Class of committed instruction
system.cpu.commit.op_class_0::SimdSha256Hash            0      0.00%     86.89% # Class of committed instruction
system.cpu.commit.op_class_0::SimdSha256Hash2            0      0.00%     86.89% # Class of committed instruction
system.cpu.commit.op_class_0::SimdShaSigma2            0      0.00%     86.89% # Class of committed instruction
system.cpu.commit.op_class_0::SimdShaSigma3            0      0.00%     86.89% # Class of committed instruction
system.cpu.commit.op_class_0::SimdPredAlu            0      0.00%     86.89% # Class of committed instruction
system.cpu.commit.op_class_0::MemRead       426849858     12.27%     99.16% # Class of committed instruction
system.cpu.commit.op_class_0::MemWrite       29383438      0.84%    100.00% # Class of committed instruction
system.cpu.commit.op_class_0::FloatMemRead         7370      0.00%    100.00% # Class of committed instruction
system.cpu.commit.op_class_0::FloatMemWrite          146      0.00%    100.00% # Class of committed instruction
system.cpu.commit.op_class_0::IprAccess             0      0.00%    100.00% # Class of committed instruction
system.cpu.commit.op_class_0::InstPrefetch            0      0.00%    100.00% # Class of committed instruction
system.cpu.commit.op_class_0::total        3479379873                       # Class of committed instruction
system.cpu.commit.refs                      456241986                       # Number of memory references committed
system.cpu.commit.swp_count                         0                       # Number of s/w prefetches committed
system.cpu.commit.vec_insts                         0                       # Number of committed Vector instructions.
system.cpu.committedInsts                  1369136269                       # Number of Instructions Simulated
system.cpu.committedOps                    3479379873                       # Number of Ops (including micro ops) Simulated
system.cpu.cpi                               0.564319                       # CPI: Cycles Per Instruction
system.cpu.cpi_total                         0.564319                       # CPI: Total CPI of All Threads
system.cpu.decode.BlockedCycles             223587583                       # Number of cycles decode is blocked
system.cpu.decode.DecodedInsts             3680846759                       # Number of instructions handled by decode
system.cpu.decode.IdleCycles                 69825149                       # Number of cycles decode is idle
system.cpu.decode.RunCycles                 404876029                       # Number of cycles decode is running
system.cpu.decode.SquashCycles                4172302                       # Number of cycles decode is squashing
system.cpu.decode.UnblockCycles              68119382                       # Number of cycles decode is unblocking
system.cpu.dtb.rdAccesses                   436135503                       # TLB accesses on read requests
system.cpu.dtb.rdMisses                        330904                       # TLB misses on read requests
system.cpu.dtb.wrAccesses                    32531202                       # TLB accesses on write requests
system.cpu.dtb.wrMisses                         70627                       # TLB misses on write requests
system.cpu.fetch.Branches                   486105540                       # Number of branches that fetch encountered
system.cpu.fetch.CacheLines                  56939849                       # Number of cache lines fetched
system.cpu.fetch.Cycles                     694798122                       # Number of cycles fetch has run and was not squashing or blocked
system.cpu.fetch.IcacheSquashes               1534494                       # Number of outstanding Icache misses that were squashed
system.cpu.fetch.IcacheWaitRetryStallCycles         2697                       # Number of stall cycles due to full MSHR
system.cpu.fetch.Insts                     1497806928                       # Number of instructions fetch has processed
system.cpu.fetch.ItlbSquashes                    5211                       # Number of outstanding ITLB misses that were squashed
system.cpu.fetch.MiscStallCycles                81954                       # Number of cycles fetch has spent waiting on interrupts, or bad addresses, or out of MSHRs
system.cpu.fetch.PendingQuiesceStallCycles      1443419                       # Number of stall cycles due to pending quiesce instructions
system.cpu.fetch.PendingTrapStallCycles         73355                       # Number of stall cycles due to pending traps
system.cpu.fetch.SquashCycles                 8344604                       # Number of cycles fetch has spent squashing
system.cpu.fetch.TlbCycles                      42476                       # Number of cycles fetch has spent waiting for tlb
system.cpu.fetch.branchRate                  0.629157                       # Number of branch fetches per cycle
system.cpu.fetch.icacheStallCycles           69966120                       # Number of cycles fetch is stalled on an Icache miss
system.cpu.fetch.predictedBranches          426808503                       # Number of branches that fetch has predicted taken
system.cpu.fetch.rate                        1.938582                       # Number of inst fetches per cycle
system.cpu.fetch.rateDist::samples          770580445                       # Number of instructions fetched each cycle (Total)
system.cpu.fetch.rateDist::mean              4.829477                       # Number of instructions fetched each cycle (Total)
system.cpu.fetch.rateDist::stdev             3.777177                       # Number of instructions fetched each cycle (Total)
system.cpu.fetch.rateDist::underflows               0      0.00%      0.00% # Number of instructions fetched each cycle (Total)
system.cpu.fetch.rateDist::0                277549841     36.02%     36.02% # Number of instructions fetched each cycle (Total)
system.cpu.fetch.rateDist::1                  6004784      0.78%     36.80% # Number of instructions fetched each cycle (Total)
system.cpu.fetch.rateDist::2                  5048183      0.66%     37.45% # Number of instructions fetched each cycle (Total)
system.cpu.fetch.rateDist::3                  8741029      1.13%     38.59% # Number of instructions fetched each cycle (Total)
system.cpu.fetch.rateDist::4                  5350591      0.69%     39.28% # Number of instructions fetched each cycle (Total)
system.cpu.fetch.rateDist::5                 12395044      1.61%     40.89% # Number of instructions fetched each cycle (Total)
system.cpu.fetch.rateDist::6                 18493776      2.40%     43.29% # Number of instructions fetched each cycle (Total)
system.cpu.fetch.rateDist::7                 11141721      1.45%     44.74% # Number of instructions fetched each cycle (Total)
system.cpu.fetch.rateDist::8                425855476     55.26%    100.00% # Number of instructions fetched each cycle (Total)
system.cpu.fetch.rateDist::overflows                0      0.00%    100.00% # Number of instructions fetched each cycle (Total)
system.cpu.fetch.rateDist::min_value                0                       # Number of instructions fetched each cycle (Total)
system.cpu.fetch.rateDist::max_value                8                       # Number of instructions fetched each cycle (Total)
system.cpu.fetch.rateDist::total            770580445                       # Number of instructions fetched each cycle (Total)
system.cpu.fp_regfile_reads                    139245                       # number of floating regfile reads
system.cpu.fp_regfile_writes                    50571                       # number of floating regfile writes
system.cpu.idleCycles                         2049685                       # Total number of cycles that the CPU has spent unscheduled due to idling
system.cpu.iew.branchMispredicts              4996528                       # Number of branch mispredicts detected at execute
system.cpu.iew.exec_branches                460929518                       # Number of branches executed
system.cpu.iew.exec_nop                             0                       # number of nop insts executed
system.cpu.iew.exec_rate                     4.620013                       # Inst execution rate
system.cpu.iew.exec_refs                    468463552                       # number of memory reference insts executed
system.cpu.iew.exec_stores                   32481452                       # Number of stores executed
system.cpu.iew.exec_swp                             0                       # number of swp insts executed
system.cpu.iew.iewBlockCycles                62556318                       # Number of cycles IEW is blocking
system.cpu.iew.iewDispLoadInsts             445768015                       # Number of dispatched load instructions
system.cpu.iew.iewDispNonSpecInsts            1405181                       # Number of dispatched non-speculative instructions
system.cpu.iew.iewDispSquashedInsts            725659                       # Number of squashed instructions skipped by dispatch
system.cpu.iew.iewDispStoreInsts             37112276                       # Number of dispatched store instructions
system.cpu.iew.iewDispatchedInsts          3631208255                       # Number of instructions dispatched to IQ
system.cpu.iew.iewExecLoadInsts             435982100                       # Number of load instructions executed
system.cpu.iew.iewExecSquashedInsts           8920773                       # Number of squashed instructions skipped in execute
system.cpu.iew.iewExecutedInsts            3569561527                       # Number of executed instructions
system.cpu.iew.iewIQFullEvents                1238822                       # Number of times the IQ has become full, causing a stall
system.cpu.iew.iewIdleCycles                        0                       # Number of cycles IEW is idle
system.cpu.iew.iewLSQFullEvents               2179499                       # Number of times the LSQ has become full, causing a stall
system.cpu.iew.iewSquashCycles                4172302                       # Number of cycles IEW is squashing
system.cpu.iew.iewUnblockCycles               4588062                       # Number of cycles IEW is unblocking
system.cpu.iew.lsq.thread0.blockedLoads             0                       # Number of blocked loads due to partial load-store forwarding
system.cpu.iew.lsq.thread0.cacheBlocked           872                       # Number of times an access to memory failed due to the cache being blocked
system.cpu.iew.lsq.thread0.forwLoads          8154339                       # Number of loads that had data forwarded from stores
system.cpu.iew.lsq.thread0.ignoredResponses        58867                       # Number of memory responses ignored because the instruction is squashed
system.cpu.iew.lsq.thread0.invAddrLoads             0                       # Number of loads ignored due to an invalid address
system.cpu.iew.lsq.thread0.invAddrSwpfs             0                       # Number of software prefetches ignored due to an invalid address
system.cpu.iew.lsq.thread0.memOrderViolation       158818                       # Number of memory ordering violations
system.cpu.iew.lsq.thread0.rescheduledLoads        22883                       # Number of loads that were rescheduled
system.cpu.iew.lsq.thread0.squashedLoads     18909612                       # Number of loads squashed
system.cpu.iew.lsq.thread0.squashedStores      7728692                       # Number of stores squashed
system.cpu.iew.memOrderViolationEvents         158818                       # Number of memory order violations
system.cpu.iew.predictedNotTakenIncorrect      4668754                       # Number of branches that were predicted not taken incorrectly
system.cpu.iew.predictedTakenIncorrect         327774                       # Number of branches that were predicted taken incorrectly
system.cpu.iew.wb_consumers                3304413401                       # num instructions consuming a value
system.cpu.iew.wb_count                    3567005116                       # cumulative count of insts written-back
system.cpu.iew.wb_fanout                     0.797292                       # average fanout of values written-back
system.cpu.iew.wb_producers                2634581390                       # num instructions producing a value
system.cpu.iew.wb_rate                       4.616705                       # insts written-back per cycle
system.cpu.iew.wb_sent                     3568003810                       # cumulative count of insts sent to commit
system.cpu.int_regfile_reads               3054017685                       # number of integer regfile reads
system.cpu.int_regfile_writes              2698137356                       # number of integer regfile writes
system.cpu.ipc                               1.772046                       # IPC: Instructions Per Cycle
system.cpu.ipc_total                         1.772046                       # IPC: Total IPC of All Threads
system.cpu.iq.FU_type_0::No_OpClass          20305140      0.57%      0.57% # Type of FU issued
system.cpu.iq.FU_type_0::IntAlu            3086442754     86.24%     86.81% # Type of FU issued
system.cpu.iq.FU_type_0::IntMult               555139      0.02%     86.82% # Type of FU issued
system.cpu.iq.FU_type_0::IntDiv                 32553      0.00%     86.82% # Type of FU issued
system.cpu.iq.FU_type_0::FloatAdd                2307      0.00%     86.82% # Type of FU issued
system.cpu.iq.FU_type_0::FloatCmp                   0      0.00%     86.82% # Type of FU issued
system.cpu.iq.FU_type_0::FloatCvt               42774      0.00%     86.83% # Type of FU issued
system.cpu.iq.FU_type_0::FloatMult                  0      0.00%     86.83% # Type of FU issued
system.cpu.iq.FU_type_0::FloatMultAcc               0      0.00%     86.83% # Type of FU issued
system.cpu.iq.FU_type_0::FloatDiv                   0      0.00%     86.83% # Type of FU issued
system.cpu.iq.FU_type_0::FloatMisc                  0      0.00%     86.83% # Type of FU issued
system.cpu.iq.FU_type_0::FloatSqrt                  0      0.00%     86.83% # Type of FU issued
system.cpu.iq.FU_type_0::SimdAdd                 2160      0.00%     86.83% # Type of FU issued
system.cpu.iq.FU_type_0::SimdAddAcc                 0      0.00%     86.83% # Type of FU issued
system.cpu.iq.FU_type_0::SimdAlu                 7396      0.00%     86.83% # Type of FU issued
system.cpu.iq.FU_type_0::SimdCmp                    0      0.00%     86.83% # Type of FU issued
system.cpu.iq.FU_type_0::SimdCvt                14113      0.00%     86.83% # Type of FU issued
system.cpu.iq.FU_type_0::SimdMisc               15225      0.00%     86.83% # Type of FU issued
system.cpu.iq.FU_type_0::SimdMult                   0      0.00%     86.83% # Type of FU issued
system.cpu.iq.FU_type_0::SimdMultAcc                0      0.00%     86.83% # Type of FU issued
system.cpu.iq.FU_type_0::SimdShift               1555      0.00%     86.83% # Type of FU issued
system.cpu.iq.FU_type_0::SimdShiftAcc               0      0.00%     86.83% # Type of FU issued
system.cpu.iq.FU_type_0::SimdDiv                    0      0.00%     86.83% # Type of FU issued
system.cpu.iq.FU_type_0::SimdSqrt                   0      0.00%     86.83% # Type of FU issued
system.cpu.iq.FU_type_0::SimdFloatAdd               0      0.00%     86.83% # Type of FU issued
system.cpu.iq.FU_type_0::SimdFloatAlu               0      0.00%     86.83% # Type of FU issued
system.cpu.iq.FU_type_0::SimdFloatCmp               0      0.00%     86.83% # Type of FU issued
system.cpu.iq.FU_type_0::SimdFloatCvt               0      0.00%     86.83% # Type of FU issued
system.cpu.iq.FU_type_0::SimdFloatDiv               0      0.00%     86.83% # Type of FU issued
system.cpu.iq.FU_type_0::SimdFloatMisc              0      0.00%     86.83% # Type of FU issued
system.cpu.iq.FU_type_0::SimdFloatMult              0      0.00%     86.83% # Type of FU issued
system.cpu.iq.FU_type_0::SimdFloatMultAcc            0      0.00%     86.83% # Type of FU issued
system.cpu.iq.FU_type_0::SimdFloatSqrt              0      0.00%     86.83% # Type of FU issued
system.cpu.iq.FU_type_0::SimdReduceAdd              0      0.00%     86.83% # Type of FU issued
system.cpu.iq.FU_type_0::SimdReduceAlu              0      0.00%     86.83% # Type of FU issued
system.cpu.iq.FU_type_0::SimdReduceCmp              0      0.00%     86.83% # Type of FU issued
system.cpu.iq.FU_type_0::SimdFloatReduceAdd            0      0.00%     86.83% # Type of FU issued
system.cpu.iq.FU_type_0::SimdFloatReduceCmp            0      0.00%     86.83% # Type of FU issued
system.cpu.iq.FU_type_0::SimdAes                    0      0.00%     86.83% # Type of FU issued
system.cpu.iq.FU_type_0::SimdAesMix                 0      0.00%     86.83% # Type of FU issued
system.cpu.iq.FU_type_0::SimdSha1Hash               0      0.00%     86.83% # Type of FU issued
system.cpu.iq.FU_type_0::SimdSha1Hash2              0      0.00%     86.83% # Type of FU issued
system.cpu.iq.FU_type_0::SimdSha256Hash             0      0.00%     86.83% # Type of FU issued
system.cpu.iq.FU_type_0::SimdSha256Hash2            0      0.00%     86.83% # Type of FU issued
system.cpu.iq.FU_type_0::SimdShaSigma2              0      0.00%     86.83% # Type of FU issued
system.cpu.iq.FU_type_0::SimdShaSigma3              0      0.00%     86.83% # Type of FU issued
system.cpu.iq.FU_type_0::SimdPredAlu                0      0.00%     86.83% # Type of FU issued
system.cpu.iq.FU_type_0::MemRead            438054242     12.24%     99.07% # Type of FU issued
system.cpu.iq.FU_type_0::MemWrite            33380291      0.93%    100.00% # Type of FU issued
system.cpu.iq.FU_type_0::FloatMemRead           16547      0.00%    100.00% # Type of FU issued
system.cpu.iq.FU_type_0::FloatMemWrite            668      0.00%    100.00% # Type of FU issued
system.cpu.iq.FU_type_0::IprAccess                  0      0.00%    100.00% # Type of FU issued
system.cpu.iq.FU_type_0::InstPrefetch               0      0.00%    100.00% # Type of FU issued
system.cpu.iq.FU_type_0::total             3578872864                       # Type of FU issued
system.cpu.iq.fp_alu_accesses                  110748                       # Number of floating point alu accesses
system.cpu.iq.fp_inst_queue_reads              229213                       # Number of floating instruction queue reads
system.cpu.iq.fp_inst_queue_wakeup_accesses       103069                       # Number of floating instruction queue wakeup accesses
system.cpu.iq.fp_inst_queue_writes             240819                       # Number of floating instruction queue writes
system.cpu.iq.fu_busy_cnt                   439980860                       # FU busy when requested
system.cpu.iq.fu_busy_rate                   0.122938                       # FU busy rate (busy events/executed inst)
system.cpu.iq.fu_full::No_OpClass                   0      0.00%      0.00% # attempts to use FU when none available
system.cpu.iq.fu_full::IntAlu               438957615     99.77%     99.77% # attempts to use FU when none available
system.cpu.iq.fu_full::IntMult                      0      0.00%     99.77% # attempts to use FU when none available
system.cpu.iq.fu_full::IntDiv                       1      0.00%     99.77% # attempts to use FU when none available
system.cpu.iq.fu_full::FloatAdd                     0      0.00%     99.77% # attempts to use FU when none available
system.cpu.iq.fu_full::FloatCmp                     0      0.00%     99.77% # attempts to use FU when none available
system.cpu.iq.fu_full::FloatCvt                    15      0.00%     99.77% # attempts to use FU when none available
system.cpu.iq.fu_full::FloatMult                    0      0.00%     99.77% # attempts to use FU when none available
system.cpu.iq.fu_full::FloatMultAcc                 0      0.00%     99.77% # attempts to use FU when none available
system.cpu.iq.fu_full::FloatDiv                     0      0.00%     99.77% # attempts to use FU when none available
system.cpu.iq.fu_full::FloatMisc                    0      0.00%     99.77% # attempts to use FU when none available
system.cpu.iq.fu_full::FloatSqrt                    0      0.00%     99.77% # attempts to use FU when none available
system.cpu.iq.fu_full::SimdAdd                      0      0.00%     99.77% # attempts to use FU when none available
system.cpu.iq.fu_full::SimdAddAcc                   0      0.00%     99.77% # attempts to use FU when none available
system.cpu.iq.fu_full::SimdAlu                     10      0.00%     99.77% # attempts to use FU when none available
system.cpu.iq.fu_full::SimdCmp                      0      0.00%     99.77% # attempts to use FU when none available
system.cpu.iq.fu_full::SimdCvt                     70      0.00%     99.77% # attempts to use FU when none available
system.cpu.iq.fu_full::SimdMisc                     0      0.00%     99.77% # attempts to use FU when none available
system.cpu.iq.fu_full::SimdMult                     0      0.00%     99.77% # attempts to use FU when none available
system.cpu.iq.fu_full::SimdMultAcc                  0      0.00%     99.77% # attempts to use FU when none available
system.cpu.iq.fu_full::SimdShift                   10      0.00%     99.77% # attempts to use FU when none available
system.cpu.iq.fu_full::SimdShiftAcc                 0      0.00%     99.77% # attempts to use FU when none available
system.cpu.iq.fu_full::SimdDiv                      0      0.00%     99.77% # attempts to use FU when none available
system.cpu.iq.fu_full::SimdSqrt                     0      0.00%     99.77% # attempts to use FU when none available
system.cpu.iq.fu_full::SimdFloatAdd                 0      0.00%     99.77% # attempts to use FU when none available
system.cpu.iq.fu_full::SimdFloatAlu                 0      0.00%     99.77% # attempts to use FU when none available
system.cpu.iq.fu_full::SimdFloatCmp                 0      0.00%     99.77% # attempts to use FU when none available
system.cpu.iq.fu_full::SimdFloatCvt                 0      0.00%     99.77% # attempts to use FU when none available
system.cpu.iq.fu_full::SimdFloatDiv                 0      0.00%     99.77% # attempts to use FU when none available
system.cpu.iq.fu_full::SimdFloatMisc                0      0.00%     99.77% # attempts to use FU when none available
system.cpu.iq.fu_full::SimdFloatMult                0      0.00%     99.77% # attempts to use FU when none available
system.cpu.iq.fu_full::SimdFloatMultAcc             0      0.00%     99.77% # attempts to use FU when none available
system.cpu.iq.fu_full::SimdFloatSqrt                0      0.00%     99.77% # attempts to use FU when none available
system.cpu.iq.fu_full::SimdReduceAdd                0      0.00%     99.77% # attempts to use FU when none available
system.cpu.iq.fu_full::SimdReduceAlu                0      0.00%     99.77% # attempts to use FU when none available
system.cpu.iq.fu_full::SimdReduceCmp                0      0.00%     99.77% # attempts to use FU when none available
system.cpu.iq.fu_full::SimdFloatReduceAdd            0      0.00%     99.77% # attempts to use FU when none available
system.cpu.iq.fu_full::SimdFloatReduceCmp            0      0.00%     99.77% # attempts to use FU when none available
system.cpu.iq.fu_full::SimdAes                      0      0.00%     99.77% # attempts to use FU when none available
system.cpu.iq.fu_full::SimdAesMix                   0      0.00%     99.77% # attempts to use FU when none available
system.cpu.iq.fu_full::SimdSha1Hash                 0      0.00%     99.77% # attempts to use FU when none available
system.cpu.iq.fu_full::SimdSha1Hash2                0      0.00%     99.77% # attempts to use FU when none available
system.cpu.iq.fu_full::SimdSha256Hash               0      0.00%     99.77% # attempts to use FU when none available
system.cpu.iq.fu_full::SimdSha256Hash2              0      0.00%     99.77% # attempts to use FU when none available
system.cpu.iq.fu_full::SimdShaSigma2                0      0.00%     99.77% # attempts to use FU when none available
system.cpu.iq.fu_full::SimdShaSigma3                0      0.00%     99.77% # attempts to use FU when none available
system.cpu.iq.fu_full::SimdPredAlu                  0      0.00%     99.77% # attempts to use FU when none available
system.cpu.iq.fu_full::MemRead                 471870      0.11%     99.87% # attempts to use FU when none available
system.cpu.iq.fu_full::MemWrite                548684      0.12%    100.00% # attempts to use FU when none available
system.cpu.iq.fu_full::FloatMemRead                32      0.00%    100.00% # attempts to use FU when none available
system.cpu.iq.fu_full::FloatMemWrite             2553      0.00%    100.00% # attempts to use FU when none available
system.cpu.iq.fu_full::IprAccess                    0      0.00%    100.00% # attempts to use FU when none available
system.cpu.iq.fu_full::InstPrefetch                 0      0.00%    100.00% # attempts to use FU when none available
system.cpu.iq.int_alu_accesses             3998437836                       # Number of integer alu accesses
system.cpu.iq.int_inst_queue_reads         8369888409                       # Number of integer instruction queue reads
system.cpu.iq.int_inst_queue_wakeup_accesses   3566902047                       # Number of integer instruction queue wakeup accesses
system.cpu.iq.int_inst_queue_writes        3782948258                       # Number of integer instruction queue writes
system.cpu.iq.iqInstsAdded                 3628029892                       # Number of instructions added to the IQ (excludes non-spec)
system.cpu.iq.iqInstsIssued                3578872864                       # Number of instructions issued
system.cpu.iq.iqNonSpecInstsAdded             3178363                       # Number of non-speculative instructions added to the IQ
system.cpu.iq.iqSquashedInstsExamined       151828378                       # Number of squashed instructions iterated over during squash; mainly for profiling
system.cpu.iq.iqSquashedInstsIssued           1810590                       # Number of squashed instructions issued
system.cpu.iq.iqSquashedNonSpecRemoved         972886                       # Number of squashed non-spec instructions that were removed
system.cpu.iq.iqSquashedOperandsExamined    220681249                       # Number of squashed operands that are examined and possibly removed from graph
system.cpu.iq.issued_per_cycle::samples     770580445                       # Number of insts issued each cycle
system.cpu.iq.issued_per_cycle::mean         4.644386                       # Number of insts issued each cycle
system.cpu.iq.issued_per_cycle::stdev        2.907213                       # Number of insts issued each cycle
system.cpu.iq.issued_per_cycle::underflows            0      0.00%      0.00% # Number of insts issued each cycle
system.cpu.iq.issued_per_cycle::0           158200413     20.53%     20.53% # Number of insts issued each cycle
system.cpu.iq.issued_per_cycle::1            37133341      4.82%     25.35% # Number of insts issued each cycle
system.cpu.iq.issued_per_cycle::2            29019461      3.77%     29.11% # Number of insts issued each cycle
system.cpu.iq.issued_per_cycle::3            36199937      4.70%     33.81% # Number of insts issued each cycle
system.cpu.iq.issued_per_cycle::4            24725363      3.21%     37.02% # Number of insts issued each cycle
system.cpu.iq.issued_per_cycle::5            21578358      2.80%     39.82% # Number of insts issued each cycle
system.cpu.iq.issued_per_cycle::6            82177964     10.66%     50.49% # Number of insts issued each cycle
system.cpu.iq.issued_per_cycle::7           377125100     48.94%     99.43% # Number of insts issued each cycle
system.cpu.iq.issued_per_cycle::8             4420508      0.57%    100.00% # Number of insts issued each cycle
system.cpu.iq.issued_per_cycle::overflows            0      0.00%    100.00% # Number of insts issued each cycle
system.cpu.iq.issued_per_cycle::min_value            0                       # Number of insts issued each cycle
system.cpu.iq.issued_per_cycle::max_value            8                       # Number of insts issued each cycle
system.cpu.iq.issued_per_cycle::total       770580445                       # Number of insts issued each cycle
system.cpu.iq.rate                           4.632065                       # Inst issue rate
system.cpu.iq.vec_alu_accesses                      0                       # Number of vector alu accesses
system.cpu.iq.vec_inst_queue_reads                  0                       # Number of vector instruction queue reads
system.cpu.iq.vec_inst_queue_wakeup_accesses            0                       # Number of vector instruction queue wakeup accesses
system.cpu.iq.vec_inst_queue_writes                 0                       # Number of vector instruction queue writes
system.cpu.itb.rdAccesses                           0                       # TLB accesses on read requests
system.cpu.itb.rdMisses                             0                       # TLB misses on read requests
system.cpu.itb.wrAccesses                    56956014                       # TLB accesses on write requests
system.cpu.itb.wrMisses                         14056                       # TLB misses on write requests
system.cpu.kern.inst.arm                            0                       # number of arm instructions executed
system.cpu.kern.inst.quiesce                     5482                       # number of quiesce instructions executed
system.cpu.memDep0.conflictingLoads           4775280                       # Number of conflicting loads.
system.cpu.memDep0.conflictingStores          3529102                       # Number of conflicting stores.
system.cpu.memDep0.insertedLoads            445768015                       # Number of loads inserted to the mem dependence unit.
system.cpu.memDep0.insertedStores            37112276                       # Number of stores inserted to the mem dependence unit.
system.cpu.misc_regfile_reads              1737974147                       # number of misc regfile reads
system.cpu.misc_regfile_writes                 435828                       # number of misc regfile writes
system.cpu.numCycles                        772630130                       # number of cpu cycles simulated
system.cpu.numWorkItemsCompleted                    0                       # number of work items this cpu completed
system.cpu.numWorkItemsStarted                      0                       # number of work items this cpu started
system.cpu.quiesceCycles                   8851960204                       # Total number of cycles that CPU has spent quiesced or waiting for an interrupt
system.cpu.rename.BlockCycles                90602673                       # Number of cycles rename is blocking
system.cpu.rename.CommittedMaps            3558324984                       # Number of HB maps that are committed
system.cpu.rename.IQFullEvents               50629880                       # Number of times rename has blocked due to IQ full
system.cpu.rename.IdleCycles                101848853                       # Number of cycles rename is idle
system.cpu.rename.LQFullEvents                  46099                       # Number of times rename has blocked due to LQ full
system.cpu.rename.ROBFullEvents                229856                       # Number of times rename has blocked due to ROB full
system.cpu.rename.RenameLookups            7337795645                       # Number of register rename lookups that rename has made
system.cpu.rename.RenamedInsts             3661400005                       # Number of instructions processed by rename
system.cpu.rename.RenamedOperands          3765171668                       # Number of destination operands rename has renamed
system.cpu.rename.RunCycles                 438189432                       # Number of cycles rename is running
system.cpu.rename.SQFullEvents               44096857                       # Number of times rename has blocked due to SQ full
system.cpu.rename.SquashCycles                4172302                       # Number of cycles rename is squashing
system.cpu.rename.UnblockCycles             122870894                       # Number of cycles rename is unblocking
system.cpu.rename.UndoneMaps                206846676                       # Number of HB maps that are undone due to squashing
system.cpu.rename.fp_rename_lookups            200957                       # Number of floating rename lookups
system.cpu.rename.int_rename_lookups       3219289359                       # Number of integer rename lookups
system.cpu.rename.serializeStallCycles       12896291                       # count of cycles rename stalled for serializing inst
system.cpu.rename.serializingInsts             585105                       # count of serializing insts renamed
system.cpu.rename.skidInsts                 324492929                       # count of insts added to the skid buffer
system.cpu.rename.tempSerializingInsts         576361                       # count of temporary serializing insts renamed
system.cpu.rob.rob_reads                   4036671347                       # The number of ROB reads
system.cpu.rob.rob_writes                  7284146570                       # The number of ROB writes
system.cpu.timesIdled                           34949                       # Number of times that the entire CPU went into an idle state and unscheduled itself
system.pc.south_bridge.ide.disks.dma_read_bytes        36864                       # Number of bytes transfered via DMA reads (not PRD).
system.pc.south_bridge.ide.disks.dma_read_full_pages            9                       # Number of full page size DMA reads (not PRD).
system.pc.south_bridge.ide.disks.dma_read_txs            9                       # Number of DMA read transactions (not PRD).
system.pc.south_bridge.ide.disks.dma_write_bytes      2722816                       # Number of bytes transfered via DMA writes.
system.pc.south_bridge.ide.disks.dma_write_full_pages          664                       # Number of full page size DMA writes.
system.pc.south_bridge.ide.disks.dma_write_txs          668                       # Number of DMA write transactions.
system.ruby.DMA_Controller.Ack           |       42544    100.00%    100.00% |           0      0.00%    100.00%
system.ruby.DMA_Controller.Ack::total           42544                      
system.ruby.DMA_Controller.BUSY_RD.Data  |        1218    100.00%    100.00% |           0      0.00%    100.00%
system.ruby.DMA_Controller.BUSY_RD.Data::total         1218                      
system.ruby.DMA_Controller.BUSY_WR.Ack   |       42544    100.00%    100.00% |           0      0.00%    100.00%
system.ruby.DMA_Controller.BUSY_WR.Ack::total        42544                      
system.ruby.DMA_Controller.Data          |        1218    100.00%    100.00% |           0      0.00%    100.00%
system.ruby.DMA_Controller.Data::total           1218                      
system.ruby.DMA_Controller.READY.ReadRequest |        1218    100.00%    100.00% |           0      0.00%    100.00%
system.ruby.DMA_Controller.READY.ReadRequest::total         1218                      
system.ruby.DMA_Controller.READY.WriteRequest |       42544    100.00%    100.00% |           0      0.00%    100.00%
system.ruby.DMA_Controller.READY.WriteRequest::total        42544                      
system.ruby.DMA_Controller.ReadRequest   |        1218    100.00%    100.00% |           0      0.00%    100.00%
system.ruby.DMA_Controller.ReadRequest::total         1218                      
system.ruby.DMA_Controller.WriteRequest  |       42544    100.00%    100.00% |           0      0.00%    100.00%
system.ruby.DMA_Controller.WriteRequest::total        42544                      
system.ruby.Directory.incomplete_times_seqr       595798                      
system.ruby.Directory.miss_latency_hist_seqr.first_response_to_completion::bucket_size            1                      
system.ruby.Directory.miss_latency_hist_seqr.first_response_to_completion::max_bucket            9                      
system.ruby.Directory.miss_latency_hist_seqr.first_response_to_completion::samples            1                      
system.ruby.Directory.miss_latency_hist_seqr.first_response_to_completion::stdev          nan                      
system.ruby.Directory.miss_latency_hist_seqr.first_response_to_completion |           1    100.00%    100.00% |           0      0.00%    100.00% |           0      0.00%    100.00% |           0      0.00%    100.00% |           0      0.00%    100.00% |           0      0.00%    100.00% |           0      0.00%    100.00% |           0      0.00%    100.00% |           0      0.00%    100.00% |           0      0.00%    100.00%
system.ruby.Directory.miss_latency_hist_seqr.first_response_to_completion::total            1                      
system.ruby.Directory.miss_latency_hist_seqr.forward_to_first_response::bucket_size           16                      
system.ruby.Directory.miss_latency_hist_seqr.forward_to_first_response::max_bucket          159                      
system.ruby.Directory.miss_latency_hist_seqr.forward_to_first_response::samples            1                      
system.ruby.Directory.miss_latency_hist_seqr.forward_to_first_response::mean          141                      
system.ruby.Directory.miss_latency_hist_seqr.forward_to_first_response::gmean   141.000000                      
system.ruby.Directory.miss_latency_hist_seqr.forward_to_first_response::stdev          nan                      
system.ruby.Directory.miss_latency_hist_seqr.forward_to_first_response |           0      0.00%      0.00% |           0      0.00%      0.00% |           0      0.00%      0.00% |           0      0.00%      0.00% |           0      0.00%      0.00% |           0      0.00%      0.00% |           0      0.00%      0.00% |           0      0.00%      0.00% |           1    100.00%    100.00% |           0      0.00%    100.00%
system.ruby.Directory.miss_latency_hist_seqr.forward_to_first_response::total            1                      
system.ruby.Directory.miss_latency_hist_seqr.initial_to_forward::bucket_size            1                      
system.ruby.Directory.miss_latency_hist_seqr.initial_to_forward::max_bucket            9                      
system.ruby.Directory.miss_latency_hist_seqr.initial_to_forward::samples            1                      
system.ruby.Directory.miss_latency_hist_seqr.initial_to_forward::stdev          nan                      
system.ruby.Directory.miss_latency_hist_seqr.initial_to_forward |           1    100.00%    100.00% |           0      0.00%    100.00% |           0      0.00%    100.00% |           0      0.00%    100.00% |           0      0.00%    100.00% |           0      0.00%    100.00% |           0      0.00%    100.00% |           0      0.00%    100.00% |           0      0.00%    100.00% |           0      0.00%    100.00%
system.ruby.Directory.miss_latency_hist_seqr.initial_to_forward::total            1                      
system.ruby.Directory.miss_latency_hist_seqr.issue_to_initial_request::bucket_size            1                      
system.ruby.Directory.miss_latency_hist_seqr.issue_to_initial_request::max_bucket            9                      
system.ruby.Directory.miss_latency_hist_seqr.issue_to_initial_request::samples            1                      
system.ruby.Directory.miss_latency_hist_seqr.issue_to_initial_request::stdev          nan                      
system.ruby.Directory.miss_latency_hist_seqr.issue_to_initial_request |           1    100.00%    100.00% |           0      0.00%    100.00% |           0      0.00%    100.00% |           0      0.00%    100.00% |           0      0.00%    100.00% |           0      0.00%    100.00% |           0      0.00%    100.00% |           0      0.00%    100.00% |           0      0.00%    100.00% |           0      0.00%    100.00%
system.ruby.Directory.miss_latency_hist_seqr.issue_to_initial_request::total            1                      
system.ruby.Directory.miss_mach_latency_hist_seqr::bucket_size           16                      
system.ruby.Directory.miss_mach_latency_hist_seqr::max_bucket          159                      
system.ruby.Directory.miss_mach_latency_hist_seqr::samples       595799                      
system.ruby.Directory.miss_mach_latency_hist_seqr::mean     0.000237                      
system.ruby.Directory.miss_mach_latency_hist_seqr::stdev     0.182671                      
system.ruby.Directory.miss_mach_latency_hist_seqr |      595798    100.00%    100.00% |           0      0.00%    100.00% |           0      0.00%    100.00% |           0      0.00%    100.00% |           0      0.00%    100.00% |           0      0.00%    100.00% |           0      0.00%    100.00% |           0      0.00%    100.00% |           1      0.00%    100.00% |           0      0.00%    100.00%
system.ruby.Directory.miss_mach_latency_hist_seqr::total       595799                      
system.ruby.Directory_Controller.Ack            40640      0.00%      0.00%
system.ruby.Directory_Controller.All_acks_and_data_no_sharers        43097      0.00%      0.00%
system.ruby.Directory_Controller.All_acks_and_shared_data          665      0.00%      0.00%
system.ruby.Directory_Controller.DMA_READ         1218      0.00%      0.00%
system.ruby.Directory_Controller.DMA_WRITE        42544      0.00%      0.00%
system.ruby.Directory_Controller.E.DMA_READ          553      0.00%      0.00%
system.ruby.Directory_Controller.E.DMA_WRITE        40087      0.00%      0.00%
system.ruby.Directory_Controller.E.GETS        278829      0.00%      0.00%
system.ruby.Directory_Controller.E.GETX        316814      0.00%      0.00%
system.ruby.Directory_Controller.Exclusive_Data         2457      0.00%      0.00%
system.ruby.Directory_Controller.GETS          278971      0.00%      0.00%
system.ruby.Directory_Controller.GETX          317033      0.00%      0.00%
system.ruby.Directory_Controller.Memory_Ack       571509      0.00%      0.00%
system.ruby.Directory_Controller.Memory_Data       596196      0.00%      0.00%
system.ruby.Directory_Controller.NO.DMA_READ          182      0.00%      0.00%
system.ruby.Directory_Controller.NO.DMA_WRITE         2457      0.00%      0.00%
system.ruby.Directory_Controller.NO.PUT        561122      0.00%      0.00%
system.ruby.Directory_Controller.NO_B.UnblockM       595799      0.00%      0.00%
system.ruby.Directory_Controller.NO_B_W.Memory_Data       595643      0.00%      0.00%
system.ruby.Directory_Controller.NO_DR_B.All_acks_and_data_no_sharers          553      0.00%      0.00%
system.ruby.Directory_Controller.NO_DR_B_D.All_acks_and_shared_data          665      0.00%      0.00%
system.ruby.Directory_Controller.NO_DR_B_D.Shared_Data          665      0.00%      0.00%
system.ruby.Directory_Controller.NO_DR_B_W.Ack          553      0.00%      0.00%
system.ruby.Directory_Controller.NO_DR_B_W.Memory_Data          553      0.00%      0.00%
system.ruby.Directory_Controller.NO_DW_B_W.Ack        40087      0.00%      0.00%
system.ruby.Directory_Controller.NO_DW_B_W.All_acks_and_data_no_sharers        42544      0.00%      0.00%
system.ruby.Directory_Controller.NO_DW_B_W.Exclusive_Data         2457      0.00%      0.00%
system.ruby.Directory_Controller.NO_DW_W.Memory_Ack        42544      0.00%      0.00%
system.ruby.Directory_Controller.PUT           561125      0.00%      0.00%
system.ruby.Directory_Controller.S.DMA_READ          483      0.00%      0.00%
system.ruby.Directory_Controller.S.GETX           156      0.00%      0.00%
system.ruby.Directory_Controller.S.PUT              3      0.00%      0.00%
system.ruby.Directory_Controller.Shared_Data          665      0.00%      0.00%
system.ruby.Directory_Controller.UnblockM       595799      0.00%      0.00%
system.ruby.Directory_Controller.WB.GETS          142      0.00%      0.00%
system.ruby.Directory_Controller.WB.GETX           63      0.00%      0.00%
system.ruby.Directory_Controller.WB.Writeback_Dirty            3      0.00%      0.00%
system.ruby.Directory_Controller.WB.Writeback_Exclusive_Clean        32713      0.00%      0.00%
system.ruby.Directory_Controller.WB.Writeback_Exclusive_Dirty       528409      0.00%      0.00%
system.ruby.Directory_Controller.WB_E_W.Memory_Ack       528962      0.00%      0.00%
system.ruby.Directory_Controller.WB_O_W.Memory_Ack            3      0.00%      0.00%
system.ruby.Directory_Controller.Writeback_Dirty            3      0.00%      0.00%
system.ruby.Directory_Controller.Writeback_Exclusive_Clean        32713      0.00%      0.00%
system.ruby.Directory_Controller.Writeback_Exclusive_Dirty       528409      0.00%      0.00%
system.ruby.IFETCH.Directory.miss_type_mach_latency_hist_seqr::bucket_size            1                      
system.ruby.IFETCH.Directory.miss_type_mach_latency_hist_seqr::max_bucket            9                      
system.ruby.IFETCH.Directory.miss_type_mach_latency_hist_seqr::samples        19890                      
system.ruby.IFETCH.Directory.miss_type_mach_latency_hist_seqr |       19890    100.00%    100.00% |           0      0.00%    100.00% |           0      0.00%    100.00% |           0      0.00%    100.00% |           0      0.00%    100.00% |           0      0.00%    100.00% |           0      0.00%    100.00% |           0      0.00%    100.00% |           0      0.00%    100.00% |           0      0.00%    100.00%
system.ruby.IFETCH.Directory.miss_type_mach_latency_hist_seqr::total        19890                      
system.ruby.IFETCH.L1Cache.hit_type_mach_latency_hist_seqr::bucket_size            1                      
system.ruby.IFETCH.L1Cache.hit_type_mach_latency_hist_seqr::max_bucket            9                      
system.ruby.IFETCH.L1Cache.hit_type_mach_latency_hist_seqr::samples     55361874                      
system.ruby.IFETCH.L1Cache.hit_type_mach_latency_hist_seqr |    55361874    100.00%    100.00% |           0      0.00%    100.00% |           0      0.00%    100.00% |           0      0.00%    100.00% |           0      0.00%    100.00% |           0      0.00%    100.00% |           0      0.00%    100.00% |           0      0.00%    100.00% |           0      0.00%    100.00% |           0      0.00%    100.00%
system.ruby.IFETCH.L1Cache.hit_type_mach_latency_hist_seqr::total     55361874                      
system.ruby.IFETCH.L2Cache.hit_type_mach_latency_hist_seqr::bucket_size            1                      
system.ruby.IFETCH.L2Cache.hit_type_mach_latency_hist_seqr::max_bucket            9                      
system.ruby.IFETCH.L2Cache.hit_type_mach_latency_hist_seqr::samples      1476576                      
system.ruby.IFETCH.L2Cache.hit_type_mach_latency_hist_seqr |     1476576    100.00%    100.00% |           0      0.00%    100.00% |           0      0.00%    100.00% |           0      0.00%    100.00% |           0      0.00%    100.00% |           0      0.00%    100.00% |           0      0.00%    100.00% |           0      0.00%    100.00% |           0      0.00%    100.00% |           0      0.00%    100.00%
system.ruby.IFETCH.L2Cache.hit_type_mach_latency_hist_seqr::total      1476576                      
system.ruby.IFETCH.hit_latency_hist_seqr::bucket_size            1                      
system.ruby.IFETCH.hit_latency_hist_seqr::max_bucket            9                      
system.ruby.IFETCH.hit_latency_hist_seqr::samples     56838450                      
system.ruby.IFETCH.hit_latency_hist_seqr |    56838450    100.00%    100.00% |           0      0.00%    100.00% |           0      0.00%    100.00% |           0      0.00%    100.00% |           0      0.00%    100.00% |           0      0.00%    100.00% |           0      0.00%    100.00% |           0      0.00%    100.00% |           0      0.00%    100.00% |           0      0.00%    100.00%
system.ruby.IFETCH.hit_latency_hist_seqr::total     56838450                      
system.ruby.IFETCH.latency_hist_seqr::bucket_size            1                      
system.ruby.IFETCH.latency_hist_seqr::max_bucket            9                      
system.ruby.IFETCH.latency_hist_seqr::samples     56858340                      
system.ruby.IFETCH.latency_hist_seqr     |    56858340    100.00%    100.00% |           0      0.00%    100.00% |           0      0.00%    100.00% |           0      0.00%    100.00% |           0      0.00%    100.00% |           0      0.00%    100.00% |           0      0.00%    100.00% |           0      0.00%    100.00% |           0      0.00%    100.00% |           0      0.00%    100.00%
system.ruby.IFETCH.latency_hist_seqr::total     56858340                      
system.ruby.IFETCH.miss_latency_hist_seqr::bucket_size            1                      
system.ruby.IFETCH.miss_latency_hist_seqr::max_bucket            9                      
system.ruby.IFETCH.miss_latency_hist_seqr::samples        19890                      
system.ruby.IFETCH.miss_latency_hist_seqr |       19890    100.00%    100.00% |           0      0.00%    100.00% |           0      0.00%    100.00% |           0      0.00%    100.00% |           0      0.00%    100.00% |           0      0.00%    100.00% |           0      0.00%    100.00% |           0      0.00%    100.00% |           0      0.00%    100.00% |           0      0.00%    100.00%
system.ruby.IFETCH.miss_latency_hist_seqr::total        19890                      
system.ruby.L1Cache.hit_mach_latency_hist_seqr::bucket_size            1                      
system.ruby.L1Cache.hit_mach_latency_hist_seqr::max_bucket            9                      
system.ruby.L1Cache.hit_mach_latency_hist_seqr::samples    486564714                      
system.ruby.L1Cache.hit_mach_latency_hist_seqr |   486564714    100.00%    100.00% |           0      0.00%    100.00% |           0      0.00%    100.00% |           0      0.00%    100.00% |           0      0.00%    100.00% |           0      0.00%    100.00% |           0      0.00%    100.00% |           0      0.00%    100.00% |           0      0.00%    100.00% |           0      0.00%    100.00%
system.ruby.L1Cache.hit_mach_latency_hist_seqr::total    486564714                      
system.ruby.L1Cache_Controller.Ack                156      0.00%      0.00%
system.ruby.L1Cache_Controller.All_acks_no_sharers       595799      0.00%      0.00%
system.ruby.L1Cache_Controller.Complete_L2_to_L1      7692578      0.00%      0.00%
system.ruby.L1Cache_Controller.Exclusive_Data       595643      0.00%      0.00%
system.ruby.L1Cache_Controller.I.Ifetch         19890      0.00%      0.00%
system.ruby.L1Cache_Controller.I.Load          258939      0.00%      0.00%
system.ruby.L1Cache_Controller.I.NC_DMA_GETS          553      0.00%      0.00%
system.ruby.L1Cache_Controller.I.Other_GETX        40087      0.00%      0.00%
system.ruby.L1Cache_Controller.I.Store         316814      0.00%      0.00%
system.ruby.L1Cache_Controller.IM.Exclusive_Data       316814      0.00%      0.00%
system.ruby.L1Cache_Controller.IS.Exclusive_Data       278829      0.00%      0.00%
system.ruby.L1Cache_Controller.IS.L1_to_L2            3      0.00%      0.00%
system.ruby.L1Cache_Controller.Ifetch        57197545      0.00%      0.00%
system.ruby.L1Cache_Controller.L1_to_L2       8286555      0.00%      0.00%
system.ruby.L1Cache_Controller.L2_Replacement       561125      0.00%      0.00%
system.ruby.L1Cache_Controller.Load         407670952      0.00%      0.00%
system.ruby.L1Cache_Controller.M.Ifetch      54609714      0.00%      0.00%
system.ruby.L1Cache_Controller.M.L1_to_L2      1660573      0.00%      0.00%
system.ruby.L1Cache_Controller.M.L2_Replacement        32713      0.00%      0.00%
system.ruby.L1Cache_Controller.M.Load         9057305      0.00%      0.00%
system.ruby.L1Cache_Controller.M.NC_DMA_GETS            4      0.00%      0.00%
system.ruby.L1Cache_Controller.M.Other_GETX           65      0.00%      0.00%
system.ruby.L1Cache_Controller.M.Store         229225      0.00%      0.00%
system.ruby.L1Cache_Controller.M.Trigger_L2_to_L1D       179676      0.00%      0.00%
system.ruby.L1Cache_Controller.M.Trigger_L2_to_L1I      1437439      0.00%      0.00%
system.ruby.L1Cache_Controller.MI.Ifetch           15      0.00%      0.00%
system.ruby.L1Cache_Controller.MI.Load            198      0.00%      0.00%
system.ruby.L1Cache_Controller.MI.Store            96      0.00%      0.00%
system.ruby.L1Cache_Controller.MI.Writeback_Ack       561122      0.00%      0.00%
system.ruby.L1Cache_Controller.MM.Ifetch       752160      0.00%      0.00%
system.ruby.L1Cache_Controller.MM.L1_to_L2      6625789      0.00%      0.00%
system.ruby.L1Cache_Controller.MM.L2_Replacement       528409      0.00%      0.00%
system.ruby.L1Cache_Controller.MM.Load      391872248      0.00%      0.00%
system.ruby.L1Cache_Controller.MM.NC_DMA_GETS          178      0.00%      0.00%
system.ruby.L1Cache_Controller.MM.Other_GETX         2392      0.00%      0.00%
system.ruby.L1Cache_Controller.MM.Store      30044200      0.00%      0.00%
system.ruby.L1Cache_Controller.MM.Trigger_L2_to_L1D      6036164      0.00%      0.00%
system.ruby.L1Cache_Controller.MM.Trigger_L2_to_L1I        39137      0.00%      0.00%
system.ruby.L1Cache_Controller.MMR.Ifetch        39137      0.00%      0.00%
system.ruby.L1Cache_Controller.MMR.Load       5836819      0.00%      0.00%
system.ruby.L1Cache_Controller.MMR.Store       199345      0.00%      0.00%
system.ruby.L1Cache_Controller.MMT.Complete_L2_to_L1      6075301      0.00%      0.00%
system.ruby.L1Cache_Controller.MMT.Ifetch         8549      0.00%      0.00%
system.ruby.L1Cache_Controller.MMT.L1_to_L2           10      0.00%      0.00%
system.ruby.L1Cache_Controller.MMT.Load        393285      0.00%      0.00%
system.ruby.L1Cache_Controller.MMT.Store        51227      0.00%      0.00%
system.ruby.L1Cache_Controller.MM_W.All_acks_no_sharers       316814      0.00%      0.00%
system.ruby.L1Cache_Controller.MR.Ifetch      1437439      0.00%      0.00%
system.ruby.L1Cache_Controller.MR.Load         174175      0.00%      0.00%
system.ruby.L1Cache_Controller.MR.Store          5501      0.00%      0.00%
system.ruby.L1Cache_Controller.MT.Complete_L2_to_L1      1617115      0.00%      0.00%
system.ruby.L1Cache_Controller.MT.Ifetch       330641      0.00%      0.00%
system.ruby.L1Cache_Controller.MT.L1_to_L2            5      0.00%      0.00%
system.ruby.L1Cache_Controller.MT.Load          77945      0.00%      0.00%
system.ruby.L1Cache_Controller.MT.Store           929      0.00%      0.00%
system.ruby.L1Cache_Controller.M_W.All_acks_no_sharers       278829      0.00%      0.00%
system.ruby.L1Cache_Controller.NC_DMA_GETS         1218      0.00%      0.00%
system.ruby.L1Cache_Controller.O.L1_to_L2          175      0.00%      0.00%
system.ruby.L1Cache_Controller.O.L2_Replacement            3      0.00%      0.00%
system.ruby.L1Cache_Controller.O.Load               9      0.00%      0.00%
system.ruby.L1Cache_Controller.O.NC_DMA_GETS          483      0.00%      0.00%
system.ruby.L1Cache_Controller.O.Store              9      0.00%      0.00%
system.ruby.L1Cache_Controller.O.Trigger_L2_to_L1D          162      0.00%      0.00%
system.ruby.L1Cache_Controller.OI.Writeback_Ack            3      0.00%      0.00%
system.ruby.L1Cache_Controller.OM.Ack             156      0.00%      0.00%
system.ruby.L1Cache_Controller.OM.All_acks_no_sharers          156      0.00%      0.00%
system.ruby.L1Cache_Controller.OR.Load             15      0.00%      0.00%
system.ruby.L1Cache_Controller.OR.Store           147      0.00%      0.00%
system.ruby.L1Cache_Controller.OT.Complete_L2_to_L1          162      0.00%      0.00%
system.ruby.L1Cache_Controller.OT.Load             14      0.00%      0.00%
system.ruby.L1Cache_Controller.OT.Store            96      0.00%      0.00%
system.ruby.L1Cache_Controller.Other_GETX        42544      0.00%      0.00%
system.ruby.L1Cache_Controller.Store         30847589      0.00%      0.00%
system.ruby.L1Cache_Controller.Trigger_L2_to_L1D      6216002      0.00%      0.00%
system.ruby.L1Cache_Controller.Trigger_L2_to_L1I      1476576      0.00%      0.00%
system.ruby.L1Cache_Controller.Writeback_Ack       561125      0.00%      0.00%
system.ruby.L2Cache.hit_mach_latency_hist_seqr::bucket_size            1                      
system.ruby.L2Cache.hit_mach_latency_hist_seqr::max_bucket            9                      
system.ruby.L2Cache.hit_mach_latency_hist_seqr::samples      7692578                      
system.ruby.L2Cache.hit_mach_latency_hist_seqr |     7692578    100.00%    100.00% |           0      0.00%    100.00% |           0      0.00%    100.00% |           0      0.00%    100.00% |           0      0.00%    100.00% |           0      0.00%    100.00% |           0      0.00%    100.00% |           0      0.00%    100.00% |           0      0.00%    100.00% |           0      0.00%    100.00%
system.ruby.L2Cache.hit_mach_latency_hist_seqr::total      7692578                      
system.ruby.LD.Directory.miss_type_mach_latency_hist_seqr::bucket_size           16                      
system.ruby.LD.Directory.miss_type_mach_latency_hist_seqr::max_bucket          159                      
system.ruby.LD.Directory.miss_type_mach_latency_hist_seqr::samples       258939                      
system.ruby.LD.Directory.miss_type_mach_latency_hist_seqr::mean     0.000545                      
system.ruby.LD.Directory.miss_type_mach_latency_hist_seqr::stdev     0.277090                      
system.ruby.LD.Directory.miss_type_mach_latency_hist_seqr |      258938    100.00%    100.00% |           0      0.00%    100.00% |           0      0.00%    100.00% |           0      0.00%    100.00% |           0      0.00%    100.00% |           0      0.00%    100.00% |           0      0.00%    100.00% |           0      0.00%    100.00% |           1      0.00%    100.00% |           0      0.00%    100.00%
system.ruby.LD.Directory.miss_type_mach_latency_hist_seqr::total       258939                      
system.ruby.LD.L1Cache.hit_type_mach_latency_hist_seqr::bucket_size            1                      
system.ruby.LD.L1Cache.hit_type_mach_latency_hist_seqr::max_bucket            9                      
system.ruby.LD.L1Cache.hit_type_mach_latency_hist_seqr::samples    400929562                      
system.ruby.LD.L1Cache.hit_type_mach_latency_hist_seqr |   400929562    100.00%    100.00% |           0      0.00%    100.00% |           0      0.00%    100.00% |           0      0.00%    100.00% |           0      0.00%    100.00% |           0      0.00%    100.00% |           0      0.00%    100.00% |           0      0.00%    100.00% |           0      0.00%    100.00% |           0      0.00%    100.00%
system.ruby.LD.L1Cache.hit_type_mach_latency_hist_seqr::total    400929562                      
system.ruby.LD.L2Cache.hit_type_mach_latency_hist_seqr::bucket_size            1                      
system.ruby.LD.L2Cache.hit_type_mach_latency_hist_seqr::max_bucket            9                      
system.ruby.LD.L2Cache.hit_type_mach_latency_hist_seqr::samples      6011009                      
system.ruby.LD.L2Cache.hit_type_mach_latency_hist_seqr |     6011009    100.00%    100.00% |           0      0.00%    100.00% |           0      0.00%    100.00% |           0      0.00%    100.00% |           0      0.00%    100.00% |           0      0.00%    100.00% |           0      0.00%    100.00% |           0      0.00%    100.00% |           0      0.00%    100.00% |           0      0.00%    100.00%
system.ruby.LD.L2Cache.hit_type_mach_latency_hist_seqr::total      6011009                      
system.ruby.LD.hit_latency_hist_seqr::bucket_size            1                      
system.ruby.LD.hit_latency_hist_seqr::max_bucket            9                      
system.ruby.LD.hit_latency_hist_seqr::samples    406940571                      
system.ruby.LD.hit_latency_hist_seqr     |   406940571    100.00%    100.00% |           0      0.00%    100.00% |           0      0.00%    100.00% |           0      0.00%    100.00% |           0      0.00%    100.00% |           0      0.00%    100.00% |           0      0.00%    100.00% |           0      0.00%    100.00% |           0      0.00%    100.00% |           0      0.00%    100.00%
system.ruby.LD.hit_latency_hist_seqr::total    406940571                      
system.ruby.LD.latency_hist_seqr::bucket_size           16                      
system.ruby.LD.latency_hist_seqr::max_bucket          159                      
system.ruby.LD.latency_hist_seqr::samples    407199510                      
system.ruby.LD.latency_hist_seqr::mean       0.000000                      
system.ruby.LD.latency_hist_seqr::stdev      0.006987                      
system.ruby.LD.latency_hist_seqr         |   407199509    100.00%    100.00% |           0      0.00%    100.00% |           0      0.00%    100.00% |           0      0.00%    100.00% |           0      0.00%    100.00% |           0      0.00%    100.00% |           0      0.00%    100.00% |           0      0.00%    100.00% |           1      0.00%    100.00% |           0      0.00%    100.00%
system.ruby.LD.latency_hist_seqr::total     407199510                      
system.ruby.LD.miss_latency_hist_seqr::bucket_size           16                      
system.ruby.LD.miss_latency_hist_seqr::max_bucket          159                      
system.ruby.LD.miss_latency_hist_seqr::samples       258939                      
system.ruby.LD.miss_latency_hist_seqr::mean     0.000545                      
system.ruby.LD.miss_latency_hist_seqr::stdev     0.277090                      
system.ruby.LD.miss_latency_hist_seqr    |      258938    100.00%    100.00% |           0      0.00%    100.00% |           0      0.00%    100.00% |           0      0.00%    100.00% |           0      0.00%    100.00% |           0      0.00%    100.00% |           0      0.00%    100.00% |           0      0.00%    100.00% |           1      0.00%    100.00% |           0      0.00%    100.00%
system.ruby.LD.miss_latency_hist_seqr::total       258939                      
system.ruby.Locked_RMW_Read.Directory.miss_type_mach_latency_hist_seqr::bucket_size            1                      
system.ruby.Locked_RMW_Read.Directory.miss_type_mach_latency_hist_seqr::max_bucket            9                      
system.ruby.Locked_RMW_Read.Directory.miss_type_mach_latency_hist_seqr::samples           68                      
system.ruby.Locked_RMW_Read.Directory.miss_type_mach_latency_hist_seqr |          68    100.00%    100.00% |           0      0.00%    100.00% |           0      0.00%    100.00% |           0      0.00%    100.00% |           0      0.00%    100.00% |           0      0.00%    100.00% |           0      0.00%    100.00% |           0      0.00%    100.00% |           0      0.00%    100.00% |           0      0.00%    100.00%
system.ruby.Locked_RMW_Read.Directory.miss_type_mach_latency_hist_seqr::total           68                      
system.ruby.Locked_RMW_Read.L1Cache.hit_type_mach_latency_hist_seqr::bucket_size            1                      
system.ruby.Locked_RMW_Read.L1Cache.hit_type_mach_latency_hist_seqr::max_bucket            9                      
system.ruby.Locked_RMW_Read.L1Cache.hit_type_mach_latency_hist_seqr::samples       422855                      
system.ruby.Locked_RMW_Read.L1Cache.hit_type_mach_latency_hist_seqr |      422855    100.00%    100.00% |           0      0.00%    100.00% |           0      0.00%    100.00% |           0      0.00%    100.00% |           0      0.00%    100.00% |           0      0.00%    100.00% |           0      0.00%    100.00% |           0      0.00%    100.00% |           0      0.00%    100.00% |           0      0.00%    100.00%
system.ruby.Locked_RMW_Read.L1Cache.hit_type_mach_latency_hist_seqr::total       422855                      
system.ruby.Locked_RMW_Read.L2Cache.hit_type_mach_latency_hist_seqr::bucket_size            1                      
system.ruby.Locked_RMW_Read.L2Cache.hit_type_mach_latency_hist_seqr::max_bucket            9                      
system.ruby.Locked_RMW_Read.L2Cache.hit_type_mach_latency_hist_seqr::samples         2220                      
system.ruby.Locked_RMW_Read.L2Cache.hit_type_mach_latency_hist_seqr |        2220    100.00%    100.00% |           0      0.00%    100.00% |           0      0.00%    100.00% |           0      0.00%    100.00% |           0      0.00%    100.00% |           0      0.00%    100.00% |           0      0.00%    100.00% |           0      0.00%    100.00% |           0      0.00%    100.00% |           0      0.00%    100.00%
system.ruby.Locked_RMW_Read.L2Cache.hit_type_mach_latency_hist_seqr::total         2220                      
system.ruby.Locked_RMW_Read.hit_latency_hist_seqr::bucket_size            1                      
system.ruby.Locked_RMW_Read.hit_latency_hist_seqr::max_bucket            9                      
system.ruby.Locked_RMW_Read.hit_latency_hist_seqr::samples       425075                      
system.ruby.Locked_RMW_Read.hit_latency_hist_seqr |      425075    100.00%    100.00% |           0      0.00%    100.00% |           0      0.00%    100.00% |           0      0.00%    100.00% |           0      0.00%    100.00% |           0      0.00%    100.00% |           0      0.00%    100.00% |           0      0.00%    100.00% |           0      0.00%    100.00% |           0      0.00%    100.00%
system.ruby.Locked_RMW_Read.hit_latency_hist_seqr::total       425075                      
system.ruby.Locked_RMW_Read.latency_hist_seqr::bucket_size            1                      
system.ruby.Locked_RMW_Read.latency_hist_seqr::max_bucket            9                      
system.ruby.Locked_RMW_Read.latency_hist_seqr::samples       425143                      
system.ruby.Locked_RMW_Read.latency_hist_seqr |      425143    100.00%    100.00% |           0      0.00%    100.00% |           0      0.00%    100.00% |           0      0.00%    100.00% |           0      0.00%    100.00% |           0      0.00%    100.00% |           0      0.00%    100.00% |           0      0.00%    100.00% |           0      0.00%    100.00% |           0      0.00%    100.00%
system.ruby.Locked_RMW_Read.latency_hist_seqr::total       425143                      
system.ruby.Locked_RMW_Read.miss_latency_hist_seqr::bucket_size            1                      
system.ruby.Locked_RMW_Read.miss_latency_hist_seqr::max_bucket            9                      
system.ruby.Locked_RMW_Read.miss_latency_hist_seqr::samples           68                      
system.ruby.Locked_RMW_Read.miss_latency_hist_seqr |          68    100.00%    100.00% |           0      0.00%    100.00% |           0      0.00%    100.00% |           0      0.00%    100.00% |           0      0.00%    100.00% |           0      0.00%    100.00% |           0      0.00%    100.00% |           0      0.00%    100.00% |           0      0.00%    100.00% |           0      0.00%    100.00%
system.ruby.Locked_RMW_Read.miss_latency_hist_seqr::total           68                      
system.ruby.Locked_RMW_Write.L1Cache.hit_type_mach_latency_hist_seqr::bucket_size            1                      
system.ruby.Locked_RMW_Write.L1Cache.hit_type_mach_latency_hist_seqr::max_bucket            9                      
system.ruby.Locked_RMW_Write.L1Cache.hit_type_mach_latency_hist_seqr::samples       425144                      
system.ruby.Locked_RMW_Write.L1Cache.hit_type_mach_latency_hist_seqr |      425144    100.00%    100.00% |           0      0.00%    100.00% |           0      0.00%    100.00% |           0      0.00%    100.00% |           0      0.00%    100.00% |           0      0.00%    100.00% |           0      0.00%    100.00% |           0      0.00%    100.00% |           0      0.00%    100.00% |           0      0.00%    100.00%
system.ruby.Locked_RMW_Write.L1Cache.hit_type_mach_latency_hist_seqr::total       425144                      
system.ruby.Locked_RMW_Write.hit_latency_hist_seqr::bucket_size            1                      
system.ruby.Locked_RMW_Write.hit_latency_hist_seqr::max_bucket            9                      
system.ruby.Locked_RMW_Write.hit_latency_hist_seqr::samples       425144                      
[...]
system.mem_ctrls.wrQLenPdf::61                      4                       # What write queue length does an incoming req see
system.mem_ctrls.wrQLenPdf::62                      3                       # What write queue length does an incoming req see
system.mem_ctrls.wrQLenPdf::63                     56                       # What write queue length does an incoming req see
system.mem_ctrls.bytesPerActivate::samples          543                       # Bytes accessed per row activation
system.mem_ctrls.bytesPerActivate::mean    179.388582                       # Bytes accessed per row activation
system.mem_ctrls.bytesPerActivate::gmean   110.404403                       # Bytes accessed per row activation
system.mem_ctrls.bytesPerActivate::stdev   248.265678                       # Bytes accessed per row activation
system.mem_ctrls.bytesPerActivate::0-127          332     61.14%     61.14% # Bytes accessed per row activation
system.mem_ctrls.bytesPerActivate::128-255          118     21.73%     82.87% # Bytes accessed per row activation
system.mem_ctrls.bytesPerActivate::256-383           30      5.52%     88.40% # Bytes accessed per row activation
system.mem_ctrls.bytesPerActivate::384-511           14      2.58%     90.98% # Bytes accessed per row activation
system.mem_ctrls.bytesPerActivate::512-639            7      1.29%     92.27% # Bytes accessed per row activation
system.mem_ctrls.bytesPerActivate::640-767            4      0.74%     93.00% # Bytes accessed per row activation
system.mem_ctrls.bytesPerActivate::768-895            2      0.37%     93.37% # Bytes accessed per row activation
system.mem_ctrls.bytesPerActivate::896-1023            4      0.74%     94.11% # Bytes accessed per row activation
system.mem_ctrls.bytesPerActivate::1024-1151           32      5.89%    100.00% # Bytes accessed per row activation
system.mem_ctrls.bytesPerActivate::total          543                       # Bytes accessed per row activation
system.mem_ctrls.rdPerTurnAround::samples           26                       # Reads before turning the bus around for writes
system.mem_ctrls.rdPerTurnAround::mean      33.884615                       # Reads before turning the bus around for writes
system.mem_ctrls.rdPerTurnAround::stdev     39.517416                       # Reads before turning the bus around for writes
system.mem_ctrls.rdPerTurnAround::0-7               9     34.62%     34.62% # Reads before turning the bus around for writes
system.mem_ctrls.rdPerTurnAround::8-15              2      7.69%     42.31% # Reads before turning the bus around for writes
system.mem_ctrls.rdPerTurnAround::16-23             2      7.69%     50.00% # Reads before turning the bus around for writes
system.mem_ctrls.rdPerTurnAround::24-31             6     23.08%     73.08% # Reads before turning the bus around for writes
system.mem_ctrls.rdPerTurnAround::32-39             1      3.85%     76.92% # Reads before turning the bus around for writes
system.mem_ctrls.rdPerTurnAround::56-63             1      3.85%     80.77% # Reads before turning the bus around for writes
system.mem_ctrls.rdPerTurnAround::72-79             1      3.85%     84.62% # Reads before turning the bus around for writes
system.mem_ctrls.rdPerTurnAround::96-103            1      3.85%     88.46% # Reads before turning the bus around for writes
system.mem_ctrls.rdPerTurnAround::104-111            1      3.85%     92.31% # Reads before turning the bus around for writes
system.mem_ctrls.rdPerTurnAround::112-119            1      3.85%     96.15% # Reads before turning the bus around for writes
system.mem_ctrls.rdPerTurnAround::136-143            1      3.85%    100.00% # Reads before turning the bus around for writes
system.mem_ctrls.rdPerTurnAround::total            26                       # Reads before turning the bus around for writes
system.mem_ctrls.wrPerTurnAround::samples           26                       # Writes before turning the bus around for reads
system.mem_ctrls.wrPerTurnAround::mean             24                       # Writes before turning the bus around for reads
system.mem_ctrls.wrPerTurnAround::gmean     21.116081                       # Writes before turning the bus around for reads
system.mem_ctrls.wrPerTurnAround::stdev     16.574679                       # Writes before turning the bus around for reads
system.mem_ctrls.wrPerTurnAround::16-17             6     23.08%     23.08% # Writes before turning the bus around for reads
system.mem_ctrls.wrPerTurnAround::18-19            14     53.85%     76.92% # Writes before turning the bus around for reads
system.mem_ctrls.wrPerTurnAround::20-21             1      3.85%     80.77% # Writes before turning the bus around for reads
system.mem_ctrls.wrPerTurnAround::22-23             1      3.85%     84.62% # Writes before turning the bus around for reads
system.mem_ctrls.wrPerTurnAround::32-33             1      3.85%     88.46% # Writes before turning the bus around for reads
system.mem_ctrls.wrPerTurnAround::48-49             1      3.85%     92.31% # Writes before turning the bus around for reads
system.mem_ctrls.wrPerTurnAround::72-73             1      3.85%     96.15% # Writes before turning the bus around for reads
system.mem_ctrls.wrPerTurnAround::78-79             1      3.85%    100.00% # Writes before turning the bus around for reads
system.mem_ctrls.wrPerTurnAround::total            26                       # Writes before turning the bus around for reads
system.mem_ctrls.bytesReadDRAM                  56192                       # Total number of bytes read from DRAM
system.mem_ctrls.bytesReadWrQ                     128                       # Total number of bytes read from write queue
system.mem_ctrls.bytesWritten                   39936                       # Total number of bytes written to DRAM
system.mem_ctrls.bytesReadSys                   56320                       # Total read bytes from the system interface side
system.mem_ctrls.bytesWrittenSys                40192                       # Total written bytes from the system interface side
system.mem_ctrls.avgRdBW                       126.54                       # Average DRAM read bandwidth in MiByte/s
system.mem_ctrls.avgWrBW                        89.93                       # Average achieved write bandwidth in MiByte/s
system.mem_ctrls.avgRdBWSys                    126.83                       # Average system read bandwidth in MiByte/s
system.mem_ctrls.avgWrBWSys                     90.51                       # Average system write bandwidth in MiByte/s
system.mem_ctrls.peakBW                      12800.00                       # Theoretical peak bandwidth in MiByte/s
system.mem_ctrls.busUtil                         1.69                       # Data bus utilization in percentage
system.mem_ctrls.busUtilRead                     0.99                       # Data bus utilization in percentage for reads
system.mem_ctrls.busUtilWrite                    0.70                       # Data bus utilization in percentage for writes
system.mem_ctrls.totGap                     444067863                       # Total gap between requests
system.mem_ctrls.avgGap                     294474.71                       # Average gap between requests
system.mem_ctrls.masterReadBytes::.ruby.dir_cntrl0        56192                       # Per-master bytes read from memory
system.mem_ctrls.masterWriteBytes::.ruby.dir_cntrl0        39936                       # Per-master bytes write to memory
system.mem_ctrls.masterReadRate::.ruby.dir_cntrl0 126536933.567607715726                       # Per-master bytes read from memory rate (Bytes/sec)
system.mem_ctrls.masterWriteRate::.ruby.dir_cntrl0 89930576.931876093149                       # Per-master bytes write to memory rate (Bytes/sec)
system.mem_ctrls.masterReadAccesses::.ruby.dir_cntrl0          880                       # Per-master read serviced memory accesses
system.mem_ctrls.masterWriteAccesses::.ruby.dir_cntrl0          628                       # Per-master write serviced memory accesses
system.mem_ctrls.masterReadTotalLat::.ruby.dir_cntrl0     23746438                       # Per-master read total memory access latency
system.mem_ctrls.masterWriteTotalLat::.ruby.dir_cntrl0   9259509817                       # Per-master write total memory access latency
system.mem_ctrls.masterReadAvgLat::.ruby.dir_cntrl0     26984.59                       # Per-master read average memory access latency
system.mem_ctrls.masterWriteAvgLat::.ruby.dir_cntrl0  14744442.38                       # Per-master write average memory access latency
system.mem_ctrls.pageHitRate                    64.08                       # Row buffer hit rate, read and write combined
system.mem_ctrls.rank1.actEnergy              2998800                       # Energy for activate commands per rank (pJ)
system.mem_ctrls.rank1.preEnergy              1601490                       # Energy for precharge commands per rank (pJ)
system.mem_ctrls.rank1.readEnergy             4955160                       # Energy for read commands per rank (pJ)
system.mem_ctrls.rank1.writeEnergy            3001500                       # Energy for write commands per rank (pJ)
system.mem_ctrls.rank1.refreshEnergy     35034480.000000                       # Energy for refresh commands per rank (pJ)
system.mem_ctrls.rank1.actBackEnergy        103192800                       # Energy for active background per rank (pJ)
system.mem_ctrls.rank1.preBackEnergy         83625600                       # Energy for precharge background per rank (pJ)
system.mem_ctrls.rank1.actPowerDownEnergy            0                       # Energy for active power-down per rank (pJ)
system.mem_ctrls.rank1.prePowerDownEnergy            0                       # Energy for precharge power-down per rank (pJ)
system.mem_ctrls.rank1.selfRefreshEnergy            0                       # Energy for self refresh per rank (pJ)
system.mem_ctrls.rank1.totalEnergy          234409830                       # Total energy per rank (pJ)
system.mem_ctrls.rank1.averagePower        527.859857                       # Core power per rank (mW)
system.mem_ctrls.rank1.totalIdleTime                0                       # Total Idle time Per DRAM Rank
system.mem_ctrls.rank1.memoryStateTime::IDLE    216339112                       # Time in different power states
system.mem_ctrls.rank1.memoryStateTime::REF     14820000                       # Time in different power states
system.mem_ctrls.rank1.memoryStateTime::SREF            0                       # Time in different power states
system.mem_ctrls.rank1.memoryStateTime::PRE_PDN            0                       # Time in different power states
system.mem_ctrls.rank1.memoryStateTime::ACT    212916767                       # Time in different power states
system.mem_ctrls.rank1.memoryStateTime::ACT_PDN            0                       # Time in different power states
system.mem_ctrls.rank0.actEnergy               835380                       # Energy for activate commands per rank (pJ)
system.mem_ctrls.rank0.preEnergy               459195                       # Energy for precharge commands per rank (pJ)
system.mem_ctrls.rank0.readEnergy             1313760                       # Energy for read commands per rank (pJ)
system.mem_ctrls.rank0.writeEnergy             255780                       # Energy for write commands per rank (pJ)
system.mem_ctrls.rank0.refreshEnergy     35034480.000000                       # Energy for refresh commands per rank (pJ)
system.mem_ctrls.rank0.actBackEnergy         78127050                       # Energy for active background per rank (pJ)
system.mem_ctrls.rank0.preBackEnergy        104733600                       # Energy for precharge background per rank (pJ)
system.mem_ctrls.rank0.actPowerDownEnergy            0                       # Energy for active power-down per rank (pJ)
system.mem_ctrls.rank0.prePowerDownEnergy            0                       # Energy for precharge power-down per rank (pJ)
system.mem_ctrls.rank0.selfRefreshEnergy            0                       # Energy for self refresh per rank (pJ)
system.mem_ctrls.rank0.totalEnergy          220759245                       # Total energy per rank (pJ)
system.mem_ctrls.rank0.averagePower        497.120550                       # Core power per rank (mW)
system.mem_ctrls.rank0.totalIdleTime                0                       # Total Idle time Per DRAM Rank
system.mem_ctrls.rank0.memoryStateTime::IDLE    271518924                       # Time in different power states
system.mem_ctrls.rank0.memoryStateTime::REF     14820000                       # Time in different power states
system.mem_ctrls.rank0.memoryStateTime::SREF            0                       # Time in different power states
system.mem_ctrls.rank0.memoryStateTime::PRE_PDN            0                       # Time in different power states
system.mem_ctrls.rank0.memoryStateTime::ACT    157736955                       # Time in different power states
system.mem_ctrls.rank0.memoryStateTime::ACT_PDN            0                       # Time in different power states
system.mem_ctrls.power_state.pwrStateResidencyTicks::UNDEFINED    444075879                       # Cumulative time (in ticks) in various power states
system.iobus.trans_dist::ReadReq                  488                       # Transaction distribution
system.iobus.trans_dist::ReadResp                 488                       # Transaction distribution
system.iobus.trans_dist::WriteReq                 470                       # Transaction distribution
system.iobus.trans_dist::WriteResp                470                       # Transaction distribution
system.iobus.pkt_count_system.pc.south_bridge.io_apic.int_master::system.ruby.l1_cntrl0.sequencer.pio-slave-port          184                       # Packet count per connected master and slave (bytes)
system.iobus.pkt_count_system.pc.south_bridge.io_apic.int_master::total          184                       # Packet count per connected master and slave (bytes)
system.iobus.pkt_count_system.ruby.l1_cntrl0.sequencer.mem-master-port::system.pc.south_bridge.ide.pio          138                       # Packet count per connected master and slave (bytes)
system.iobus.pkt_count_system.ruby.l1_cntrl0.sequencer.mem-master-port::system.pc.south_bridge.io_apic.pio          462                       # Packet count per connected master and slave (bytes)
system.iobus.pkt_count_system.ruby.l1_cntrl0.sequencer.mem-master-port::system.pc.com_1.pio          946                       # Packet count per connected master and slave (bytes)
system.iobus.pkt_count_system.ruby.l1_cntrl0.sequencer.mem-master-port::system.ruby.l1_cntrl0.sequencer.pio-slave-port          186                       # Packet count per connected master and slave (bytes)
system.iobus.pkt_count_system.ruby.l1_cntrl0.sequencer.mem-master-port::total         1732                       # Packet count per connected master and slave (bytes)
system.iobus.pkt_count::total                    1916                       # Packet count per connected master and slave (bytes)
system.iobus.pkt_size_system.pc.south_bridge.io_apic.int_master::system.ruby.l1_cntrl0.sequencer.pio-slave-port          368                       # Cumulative packet size per connected master and slave (bytes)
system.iobus.pkt_size_system.pc.south_bridge.io_apic.int_master::total          368                       # Cumulative packet size per connected master and slave (bytes)
system.iobus.pkt_size_system.ruby.l1_cntrl0.sequencer.mem-master-port::system.pc.south_bridge.ide.pio           78                       # Cumulative packet size per connected master and slave (bytes)
system.iobus.pkt_size_system.ruby.l1_cntrl0.sequencer.mem-master-port::system.pc.south_bridge.io_apic.pio          924                       # Cumulative packet size per connected master and slave (bytes)
system.iobus.pkt_size_system.ruby.l1_cntrl0.sequencer.mem-master-port::system.pc.com_1.pio          473                       # Cumulative packet size per connected master and slave (bytes)
system.iobus.pkt_size_system.ruby.l1_cntrl0.sequencer.mem-master-port::system.ruby.l1_cntrl0.sequencer.pio-slave-port          372                       # Cumulative packet size per connected master and slave (bytes)
system.iobus.pkt_size_system.ruby.l1_cntrl0.sequencer.mem-master-port::total         1847                       # Cumulative packet size per connected master and slave (bytes)
system.iobus.pkt_size::total                     2215                       # Cumulative packet size per connected master and slave (bytes)
system.iobus.reqLayer2.occupancy               150937                       # Layer occupancy (ticks)
system.iobus.reqLayer2.utilization                0.0                       # Layer utilization (%)
system.iobus.reqLayer8.occupancy               441814                       # Layer occupancy (ticks)
system.iobus.reqLayer8.utilization                0.1                       # Layer utilization (%)
system.iobus.power_state.pwrStateResidencyTicks::UNDEFINED    444075879                       # Cumulative time (in ticks) in various power states
system.iobus.reqLayer17.occupancy              455085                       # Layer occupancy (ticks)
system.iobus.reqLayer17.utilization               0.1                       # Layer utilization (%)
system.iobus.reqLayer12.occupancy              851747                       # Layer occupancy (ticks)
system.iobus.reqLayer12.utilization               0.2                       # Layer utilization (%)
system.iobus.respLayer0.occupancy              131723                       # Layer occupancy (ticks)
system.iobus.respLayer0.utilization               0.0                       # Layer utilization (%)
system.iobus.respLayer3.occupancy             1482758                       # Layer occupancy (ticks)
system.iobus.respLayer3.utilization               0.3                       # Layer utilization (%)
system.cpu_clk_domain.clock                       501                       # Clock period in ticks
system.cpu.dtb.walker.power_state.pwrStateResidencyTicks::UNDEFINED    444075879                       # Cumulative time (in ticks) in various power states
system.cpu.interrupts.clk_domain.clock           8016                       # Clock period in ticks
system.cpu.itb.walker.power_state.pwrStateResidencyTicks::UNDEFINED    444075879                       # Cumulative time (in ticks) in various power states
system.cpu.power_state.numTransitions              17                       # Number of power state transitions
system.cpu.power_state.ticksClkGated::samples            7                       # Distribution of time spent in the clock gated state
system.cpu.power_state.ticksClkGated::mean 870097.142857                       # Distribution of time spent in the clock gated state
system.cpu.power_state.ticksClkGated::stdev 343690.654597                       # Distribution of time spent in the clock gated state
system.cpu.power_state.ticksClkGated::1001-5e+10            7    100.00%    100.00% # Distribution of time spent in the clock gated state
system.cpu.power_state.ticksClkGated::min_value        90680                       # Distribution of time spent in the clock gated state
system.cpu.power_state.ticksClkGated::max_value      1000000                       # Distribution of time spent in the clock gated state
system.cpu.power_state.ticksClkGated::total            7                       # Distribution of time spent in the clock gated state
system.cpu.power_state.pwrStateResidencyTicks::ON    437985199                       # Cumulative time (in ticks) in various power states
system.cpu.power_state.pwrStateResidencyTicks::CLK_GATED      6090680                       # Cumulative time (in ticks) in various power states

---------- End Simulation Statistics   ----------
