
---------- Begin Simulation Statistics ----------
final_tick                               5128148308467                       # Number of ticks from beginning of simulation (restored from checkpoints and never reset)
host_inst_rate                                 255596                       # Simulator instruction rate (inst/s)
host_mem_usage                                1122236                       # Number of bytes of host memory used
host_op_rate                                   571255                       # Simulator op (including micro ops) rate (op/s)
host_seconds                                  1553.50                       # Real time elapsed on the host
host_tick_rate                             3301034406                       # Simulator tick rate (ticks/s)
sim_freq                                 1000000000000                       # Frequency of simulated ticks
sim_insts                                   397067519                       # Number of instructions simulated
sim_ops                                     887443857                       # Number of ops (including micro ops) simulated
sim_seconds                                  5.128148                       # Number of seconds simulated
sim_ticks                                5128148308467                       # Number of ticks simulated
system.cpu.Branches                         129273182                       # Number of branches fetched
system.cpu.Criticality                      397065572                       # Criticality of the thread running on this core
system.cpu.committedInsts                   397067519                       # Number of instructions committed
system.cpu.committedOps                     887443857                       # Number of ops (including micro ops) committed
system.cpu.dtb.rdAccesses                   102682130                       # TLB accesses on read requests
system.cpu.dtb.rdMisses                          1086                       # TLB misses on read requests
system.cpu.dtb.wrAccesses                    29313479                       # TLB accesses on write requests
system.cpu.dtb.wrMisses                          4887                       # TLB misses on write requests
system.cpu.idle_fraction                     0.857283                       # Percentage of idle cycles
system.cpu.itb.rdAccesses                           0                       # TLB accesses on read requests
system.cpu.itb.rdMisses                             0                       # TLB misses on read requests
system.cpu.itb.wrAccesses                   514454472                       # TLB accesses on write requests
system.cpu.itb.wrMisses                          1756                       # TLB misses on write requests
system.cpu.kern.inst.arm                            0                       # number of arm instructions executed
system.cpu.kern.inst.quiesce                     5484                       # number of quiesce instructions executed
system.cpu.not_idle_fraction                 0.142717                       # Percentage of non-idle cycles
system.cpu.numCycles                      10235824967                       # number of cpu cycles simulated
system.cpu.numWorkItemsCompleted                    0                       # number of work items this cpu completed
system.cpu.numWorkItemsStarted                      0                       # number of work items this cpu started
system.cpu.num_busy_cycles               1460823594.031651                       # Number of busy cycles
system.cpu.num_cc_register_reads            614055198                       # number of times the CC registers were read
system.cpu.num_cc_register_writes           287094278                       # number of times the CC registers were written
system.cpu.num_conditional_control_insts    111217359                       # number of instructions that are conditional controls
system.cpu.num_fp_alu_accesses                  41342                       # Number of float alu accesses
system.cpu.num_fp_insts                         41342                       # number of float instructions
system.cpu.num_fp_register_reads                68124                       # number of times the floating registers were read
system.cpu.num_fp_register_writes               32865                       # number of times the floating registers were written
system.cpu.num_func_calls                    13649579                       # number of times a function call or return occured
system.cpu.num_idle_cycles               8775001372.968349                       # Number of idle cycles
system.cpu.num_int_alu_accesses             825421326                       # Number of integer alu accesses
system.cpu.num_int_insts                    825421326                       # number of integer instructions
system.cpu.num_int_register_reads          1419839065                       # number of times the integer registers were read
system.cpu.num_int_register_writes          679191797                       # number of times the integer registers were written
system.cpu.num_load_insts                   102835509                       # Number of load instructions
system.cpu.num_mem_refs                     132161139                       # number of memory refs
system.cpu.num_store_insts                   29325630                       # Number of store instructions
system.cpu.num_vec_alu_accesses                     0                       # Number of vector alu accesses
system.cpu.num_vec_insts                            0                       # number of vector instructions
system.cpu.num_vec_register_reads                   0                       # number of times the vector registers were read
system.cpu.num_vec_register_writes                  0                       # number of times the vector registers were written
system.cpu.op_class::No_OpClass              17693590      1.99%      1.99% # Class of executed instruction
system.cpu.op_class::IntAlu                 737208551     83.07%     85.06% # Class of executed instruction
system.cpu.op_class::IntMult                   322610      0.04%     85.10% # Class of executed instruction
system.cpu.op_class::IntDiv                     31530      0.00%     85.10% # Class of executed instruction
system.cpu.op_class::FloatAdd                     759      0.00%     85.10% # Class of executed instruction
system.cpu.op_class::FloatCmp                       0      0.00%     85.10% # Class of executed instruction
system.cpu.op_class::FloatCvt                      16      0.00%     85.10% # Class of executed instruction
system.cpu.op_class::FloatMult                      0      0.00%     85.10% # Class of executed instruction
system.cpu.op_class::FloatMultAcc                   0      0.00%     85.10% # Class of executed instruction
system.cpu.op_class::FloatDiv                       0      0.00%     85.10% # Class of executed instruction
system.cpu.op_class::FloatMisc                      0      0.00%     85.10% # Class of executed instruction
system.cpu.op_class::FloatSqrt                      0      0.00%     85.10% # Class of executed instruction
system.cpu.op_class::SimdAdd                     1308      0.00%     85.10% # Class of executed instruction
system.cpu.op_class::SimdAddAcc                     0      0.00%     85.10% # Class of executed instruction
system.cpu.op_class::SimdAlu                     4052      0.00%     85.11% # Class of executed instruction
system.cpu.op_class::SimdCmp                        0      0.00%     85.11% # Class of executed instruction
system.cpu.op_class::SimdCvt                     9586      0.00%     85.11% # Class of executed instruction
system.cpu.op_class::SimdMisc                   13059      0.00%     85.11% # Class of executed instruction
system.cpu.op_class::SimdMult                       0      0.00%     85.11% # Class of executed instruction
system.cpu.op_class::SimdMultAcc                    0      0.00%     85.11% # Class of executed instruction
system.cpu.op_class::SimdShift                    616      0.00%     85.11% # Class of executed instruction
system.cpu.op_class::SimdShiftAcc                   0      0.00%     85.11% # Class of executed instruction
system.cpu.op_class::SimdDiv                        0      0.00%     85.11% # Class of executed instruction
system.cpu.op_class::SimdSqrt                       0      0.00%     85.11% # Class of executed instruction
system.cpu.op_class::SimdFloatAdd                   0      0.00%     85.11% # Class of executed instruction
system.cpu.op_class::SimdFloatAlu                   0      0.00%     85.11% # Class of executed instruction
system.cpu.op_class::SimdFloatCmp                   0      0.00%     85.11% # Class of executed instruction
system.cpu.op_class::SimdFloatCvt                   0      0.00%     85.11% # Class of executed instruction
system.cpu.op_class::SimdFloatDiv                   0      0.00%     85.11% # Class of executed instruction
system.cpu.op_class::SimdFloatMisc                  0      0.00%     85.11% # Class of executed instruction
system.cpu.op_class::SimdFloatMult                  0      0.00%     85.11% # Class of executed instruction
system.cpu.op_class::SimdFloatMultAcc               0      0.00%     85.11% # Class of executed instruction
system.cpu.op_class::SimdFloatSqrt                  0      0.00%     85.11% # Class of executed instruction
system.cpu.op_class::SimdReduceAdd                  0      0.00%     85.11% # Class of executed instruction
system.cpu.op_class::SimdReduceAlu                  0      0.00%     85.11% # Class of executed instruction
system.cpu.op_class::SimdReduceCmp                  0      0.00%     85.11% # Class of executed instruction
system.cpu.op_class::SimdFloatReduceAdd             0      0.00%     85.11% # Class of executed instruction
system.cpu.op_class::SimdFloatReduceCmp             0      0.00%     85.11% # Class of executed instruction
system.cpu.op_class::SimdAes                        0      0.00%     85.11% # Class of executed instruction
system.cpu.op_class::SimdAesMix                     0      0.00%     85.11% # Class of executed instruction
system.cpu.op_class::SimdSha1Hash                   0      0.00%     85.11% # Class of executed instruction
system.cpu.op_class::SimdSha1Hash2                  0      0.00%     85.11% # Class of executed instruction
system.cpu.op_class::SimdSha256Hash                 0      0.00%     85.11% # Class of executed instruction
system.cpu.op_class::SimdSha256Hash2                0      0.00%     85.11% # Class of executed instruction
system.cpu.op_class::SimdShaSigma2                  0      0.00%     85.11% # Class of executed instruction
system.cpu.op_class::SimdShaSigma3                  0      0.00%     85.11% # Class of executed instruction
system.cpu.op_class::SimdPredAlu                    0      0.00%     85.11% # Class of executed instruction
system.cpu.op_class::MemRead                102825871     11.59%     96.69% # Class of executed instruction
system.cpu.op_class::MemWrite                29325483      3.30%    100.00% # Class of executed instruction
system.cpu.op_class::FloatMemRead                7406      0.00%    100.00% # Class of executed instruction
system.cpu.op_class::FloatMemWrite                147      0.00%    100.00% # Class of executed instruction
system.cpu.op_class::IprAccess                      0      0.00%    100.00% # Class of executed instruction
system.cpu.op_class::InstPrefetch                   0      0.00%    100.00% # Class of executed instruction
system.cpu.op_class::total                  887444584                       # Class of executed instruction
system.pc.south_bridge.ide.disks.dma_read_bytes        36864                       # Number of bytes transfered via DMA reads (not PRD).
system.pc.south_bridge.ide.disks.dma_read_full_pages            9                       # Number of full page size DMA reads (not PRD).
system.pc.south_bridge.ide.disks.dma_read_txs            9                       # Number of DMA read transactions (not PRD).
system.pc.south_bridge.ide.disks.dma_write_bytes      2722816                       # Number of bytes transfered via DMA writes.
system.pc.south_bridge.ide.disks.dma_write_full_pages          664                       # Number of full page size DMA writes.
system.pc.south_bridge.ide.disks.dma_write_txs          668                       # Number of DMA write transactions.
system.ruby.DMA_Controller.Ack           |       42544    100.00%    100.00% |           0      0.00%    100.00%
system.ruby.DMA_Controller.Ack::total           42544                      
system.ruby.DMA_Controller.BUSY_RD.Data  |        1202    100.00%    100.00% |           0      0.00%    100.00%
system.ruby.DMA_Controller.BUSY_RD.Data::total         1202                      
system.ruby.DMA_Controller.BUSY_WR.Ack   |       42544    100.00%    100.00% |           0      0.00%    100.00%
system.ruby.DMA_Controller.BUSY_WR.Ack::total        42544                      
system.ruby.DMA_Controller.Data          |        1202    100.00%    100.00% |           0      0.00%    100.00%
system.ruby.DMA_Controller.Data::total           1202                      
system.ruby.DMA_Controller.READY.ReadRequest |        1202    100.00%    100.00% |           0      0.00%    100.00%
system.ruby.DMA_Controller.READY.ReadRequest::total         1202                      
system.ruby.DMA_Controller.READY.WriteRequest |       42544    100.00%    100.00% |           0      0.00%    100.00%
system.ruby.DMA_Controller.READY.WriteRequest::total        42544                      
system.ruby.DMA_Controller.ReadRequest   |        1202    100.00%    100.00% |           0      0.00%    100.00%
system.ruby.DMA_Controller.ReadRequest::total         1202                      
system.ruby.DMA_Controller.WriteRequest  |       42544    100.00%    100.00% |           0      0.00%    100.00%
system.ruby.DMA_Controller.WriteRequest::total        42544                      
system.ruby.Directory.incomplete_times_seqr       568969                      
system.ruby.Directory.miss_latency_hist_seqr.first_response_to_completion::bucket_size            1                      
system.ruby.Directory.miss_latency_hist_seqr.first_response_to_completion::max_bucket            9                      
system.ruby.Directory.miss_latency_hist_seqr.first_response_to_completion::samples            1                      
system.ruby.Directory.miss_latency_hist_seqr.first_response_to_completion::stdev          nan                      
system.ruby.Directory.miss_latency_hist_seqr.first_response_to_completion |           1    100.00%    100.00% |           0      0.00%    100.00% |           0      0.00%    100.00% |           0      0.00%    100.00% |           0      0.00%    100.00% |           0      0.00%    100.00% |           0      0.00%    100.00% |           0      0.00%    100.00% |           0      0.00%    100.00% |           0      0.00%    100.00%
system.ruby.Directory.miss_latency_hist_seqr.first_response_to_completion::total            1                      
system.ruby.Directory.miss_latency_hist_seqr.forward_to_first_response::bucket_size           16                      
system.ruby.Directory.miss_latency_hist_seqr.forward_to_first_response::max_bucket          159                      
system.ruby.Directory.miss_latency_hist_seqr.forward_to_first_response::samples            1                      
system.ruby.Directory.miss_latency_hist_seqr.forward_to_first_response::mean          141                      
system.ruby.Directory.miss_latency_hist_seqr.forward_to_first_response::gmean   141.000000                      
system.ruby.Directory.miss_latency_hist_seqr.forward_to_first_response::stdev          nan                      
system.ruby.Directory.miss_latency_hist_seqr.forward_to_first_response |           0      0.00%      0.00% |           0      0.00%      0.00% |           0      0.00%      0.00% |           0      0.00%      0.00% |           0      0.00%      0.00% |           0      0.00%      0.00% |           0      0.00%      0.00% |           0      0.00%      0.00% |           1    100.00%    100.00% |           0      0.00%    100.00%
system.ruby.Directory.miss_latency_hist_seqr.forward_to_first_response::total            1                      
system.ruby.Directory.miss_latency_hist_seqr.initial_to_forward::bucket_size            1                      
system.ruby.Directory.miss_latency_hist_seqr.initial_to_forward::max_bucket            9                      
system.ruby.Directory.miss_latency_hist_seqr.initial_to_forward::samples            1                      
system.ruby.Directory.miss_latency_hist_seqr.initial_to_forward::stdev          nan                      
system.ruby.Directory.miss_latency_hist_seqr.initial_to_forward |           1    100.00%    100.00% |           0      0.00%    100.00% |           0      0.00%    100.00% |           0      0.00%    100.00% |           0      0.00%    100.00% |           0      0.00%    100.00% |           0      0.00%    100.00% |           0      0.00%    100.00% |           0      0.00%    100.00% |           0      0.00%    100.00%
system.ruby.Directory.miss_latency_hist_seqr.initial_to_forward::total            1                      
system.ruby.Directory.miss_latency_hist_seqr.issue_to_initial_request::bucket_size            1                      
system.ruby.Directory.miss_latency_hist_seqr.issue_to_initial_request::max_bucket            9                      
system.ruby.Directory.miss_latency_hist_seqr.issue_to_initial_request::samples            1                      
system.ruby.Directory.miss_latency_hist_seqr.issue_to_initial_request::stdev          nan                      
system.ruby.Directory.miss_latency_hist_seqr.issue_to_initial_request |           1    100.00%    100.00% |           0      0.00%    100.00% |           0      0.00%    100.00% |           0      0.00%    100.00% |           0      0.00%    100.00% |           0      0.00%    100.00% |           0      0.00%    100.00% |           0      0.00%    100.00% |           0      0.00%    100.00% |           0      0.00%    100.00%
system.ruby.Directory.miss_latency_hist_seqr.issue_to_initial_request::total            1                      
system.ruby.Directory.miss_mach_latency_hist_seqr::bucket_size           16                      
system.ruby.Directory.miss_mach_latency_hist_seqr::max_bucket          159                      
system.ruby.Directory.miss_mach_latency_hist_seqr::samples       568970                      
system.ruby.Directory.miss_mach_latency_hist_seqr::mean     0.000248                      
system.ruby.Directory.miss_mach_latency_hist_seqr::stdev     0.186928                      
system.ruby.Directory.miss_mach_latency_hist_seqr |      568969    100.00%    100.00% |           0      0.00%    100.00% |           0      0.00%    100.00% |           0      0.00%    100.00% |           0      0.00%    100.00% |           0      0.00%    100.00% |           0      0.00%    100.00% |           0      0.00%    100.00% |           1      0.00%    100.00% |           0      0.00%    100.00%
system.ruby.Directory.miss_mach_latency_hist_seqr::total       568970                      
system.ruby.Directory_Controller.Ack            39843      0.00%      0.00%
system.ruby.Directory_Controller.All_acks_and_data_no_sharers        43095      0.00%      0.00%
system.ruby.Directory_Controller.All_acks_and_shared_data          651      0.00%      0.00%
system.ruby.Directory_Controller.DMA_READ         1202      0.00%      0.00%
system.ruby.Directory_Controller.DMA_WRITE        42544      0.00%      0.00%
system.ruby.Directory_Controller.E.DMA_READ          551      0.00%      0.00%
system.ruby.Directory_Controller.E.DMA_WRITE        39292      0.00%      0.00%
system.ruby.Directory_Controller.E.GETS        183660      0.00%      0.00%
system.ruby.Directory_Controller.E.GETX        385156      0.00%      0.00%
system.ruby.Directory_Controller.Exclusive_Data         3252      0.00%      0.00%
system.ruby.Directory_Controller.GETS          183725      0.00%      0.00%
system.ruby.Directory_Controller.GETX          385360      0.00%      0.00%
system.ruby.Directory_Controller.Memory_Ack       549683      0.00%      0.00%
system.ruby.Directory_Controller.Memory_Data       569367      0.00%      0.00%
system.ruby.Directory_Controller.NO.DMA_READ          183      0.00%      0.00%
system.ruby.Directory_Controller.NO.DMA_WRITE         3252      0.00%      0.00%
system.ruby.Directory_Controller.NO.PUT        533239      0.00%      0.00%
system.ruby.Directory_Controller.NO_B.UnblockM       568970      0.00%      0.00%
system.ruby.Directory_Controller.NO_B_W.Memory_Data       568816      0.00%      0.00%
system.ruby.Directory_Controller.NO_DR_B.All_acks_and_data_no_sharers          551      0.00%      0.00%
system.ruby.Directory_Controller.NO_DR_B_D.All_acks_and_shared_data          651      0.00%      0.00%
system.ruby.Directory_Controller.NO_DR_B_D.Shared_Data          651      0.00%      0.00%
system.ruby.Directory_Controller.NO_DR_B_W.Ack          551      0.00%      0.00%
system.ruby.Directory_Controller.NO_DR_B_W.Memory_Data          551      0.00%      0.00%
system.ruby.Directory_Controller.NO_DW_B_W.Ack        39292      0.00%      0.00%
system.ruby.Directory_Controller.NO_DW_B_W.All_acks_and_data_no_sharers        42544      0.00%      0.00%
system.ruby.Directory_Controller.NO_DW_B_W.Exclusive_Data         3252      0.00%      0.00%
system.ruby.Directory_Controller.NO_DW_W.Memory_Ack        42544      0.00%      0.00%
system.ruby.Directory_Controller.PUT           533240      0.00%      0.00%
system.ruby.Directory_Controller.S.DMA_READ          468      0.00%      0.00%
system.ruby.Directory_Controller.S.GETX           154      0.00%      0.00%
system.ruby.Directory_Controller.S.PUT              1      0.00%      0.00%
system.ruby.Directory_Controller.Shared_Data          651      0.00%      0.00%
system.ruby.Directory_Controller.UnblockM       568970      0.00%      0.00%
system.ruby.Directory_Controller.WB.GETS           65      0.00%      0.00%
system.ruby.Directory_Controller.WB.GETX           50      0.00%      0.00%
system.ruby.Directory_Controller.WB.Writeback_Clean            1      0.00%      0.00%
system.ruby.Directory_Controller.WB.Writeback_Exclusive_Clean        26651      0.00%      0.00%
system.ruby.Directory_Controller.WB.Writeback_Exclusive_Dirty       506588      0.00%      0.00%
system.ruby.Directory_Controller.WB_E_W.Memory_Ack       507139      0.00%      0.00%
system.ruby.Directory_Controller.Writeback_Clean            1      0.00%      0.00%
system.ruby.Directory_Controller.Writeback_Exclusive_Clean        26651      0.00%      0.00%
system.ruby.Directory_Controller.Writeback_Exclusive_Dirty       506588      0.00%      0.00%
system.ruby.IFETCH.Directory.miss_type_mach_latency_hist_seqr::bucket_size            1                      
system.ruby.IFETCH.Directory.miss_type_mach_latency_hist_seqr::max_bucket            9                      
system.ruby.IFETCH.Directory.miss_type_mach_latency_hist_seqr::samples        15948                      
system.ruby.IFETCH.Directory.miss_type_mach_latency_hist_seqr |       15948    100.00%    100.00% |           0      0.00%    100.00% |           0      0.00%    100.00% |           0      0.00%    100.00% |           0      0.00%    100.00% |           0      0.00%    100.00% |           0      0.00%    100.00% |           0      0.00%    100.00% |           0      0.00%    100.00% |           0      0.00%    100.00%
system.ruby.IFETCH.Directory.miss_type_mach_latency_hist_seqr::total        15948                      
system.ruby.IFETCH.L1Cache.hit_type_mach_latency_hist_seqr::bucket_size            1                      
system.ruby.IFETCH.L1Cache.hit_type_mach_latency_hist_seqr::max_bucket            9                      
system.ruby.IFETCH.L1Cache.hit_type_mach_latency_hist_seqr::samples    513429139                      
system.ruby.IFETCH.L1Cache.hit_type_mach_latency_hist_seqr |   513429139    100.00%    100.00% |           0      0.00%    100.00% |           0      0.00%    100.00% |           0      0.00%    100.00% |           0      0.00%    100.00% |           0      0.00%    100.00% |           0      0.00%    100.00% |           0      0.00%    100.00% |           0      0.00%    100.00% |           0      0.00%    100.00%
system.ruby.IFETCH.L1Cache.hit_type_mach_latency_hist_seqr::total    513429139                      
system.ruby.IFETCH.L2Cache.hit_type_mach_latency_hist_seqr::bucket_size            1                      
system.ruby.IFETCH.L2Cache.hit_type_mach_latency_hist_seqr::max_bucket            9                      
system.ruby.IFETCH.L2Cache.hit_type_mach_latency_hist_seqr::samples      1007628                      
system.ruby.IFETCH.L2Cache.hit_type_mach_latency_hist_seqr |     1007628    100.00%    100.00% |           0      0.00%    100.00% |           0      0.00%    100.00% |           0      0.00%    100.00% |           0      0.00%    100.00% |           0      0.00%    100.00% |           0      0.00%    100.00% |           0      0.00%    100.00% |           0      0.00%    100.00% |           0      0.00%    100.00%
system.ruby.IFETCH.L2Cache.hit_type_mach_latency_hist_seqr::total      1007628                      
system.ruby.IFETCH.hit_latency_hist_seqr::bucket_size            1                      
system.ruby.IFETCH.hit_latency_hist_seqr::max_bucket            9                      
system.ruby.IFETCH.hit_latency_hist_seqr::samples    514436767                      
system.ruby.IFETCH.hit_latency_hist_seqr |   514436767    100.00%    100.00% |           0      0.00%    100.00% |           0      0.00%    100.00% |           0      0.00%    100.00% |           0      0.00%    100.00% |           0      0.00%    100.00% |           0      0.00%    100.00% |           0      0.00%    100.00% |           0      0.00%    100.00% |           0      0.00%    100.00%
system.ruby.IFETCH.hit_latency_hist_seqr::total    514436767                      
system.ruby.IFETCH.latency_hist_seqr::bucket_size            1                      
system.ruby.IFETCH.latency_hist_seqr::max_bucket            9                      
system.ruby.IFETCH.latency_hist_seqr::samples    514452715                      
system.ruby.IFETCH.latency_hist_seqr     |   514452715    100.00%    100.00% |           0      0.00%    100.00% |           0      0.00%    100.00% |           0      0.00%    100.00% |           0      0.00%    100.00% |           0      0.00%    100.00% |           0      0.00%    100.00% |           0      0.00%    100.00% |           0      0.00%    100.00% |           0      0.00%    100.00%
system.ruby.IFETCH.latency_hist_seqr::total    514452715                      
system.ruby.IFETCH.miss_latency_hist_seqr::bucket_size            1                      
system.ruby.IFETCH.miss_latency_hist_seqr::max_bucket            9                      
system.ruby.IFETCH.miss_latency_hist_seqr::samples        15948                      
system.ruby.IFETCH.miss_latency_hist_seqr |       15948    100.00%    100.00% |           0      0.00%    100.00% |           0      0.00%    100.00% |           0      0.00%    100.00% |           0      0.00%    100.00% |           0      0.00%    100.00% |           0      0.00%    100.00% |           0      0.00%    100.00% |           0      0.00%    100.00% |           0      0.00%    100.00%
system.ruby.IFETCH.miss_latency_hist_seqr::total        15948                      
system.ruby.L1Cache.hit_mach_latency_hist_seqr::bucket_size            1                      
system.ruby.L1Cache.hit_mach_latency_hist_seqr::max_bucket            9                      
system.ruby.L1Cache.hit_mach_latency_hist_seqr::samples    638753862                      
system.ruby.L1Cache.hit_mach_latency_hist_seqr |   638753862    100.00%    100.00% |           0      0.00%    100.00% |           0      0.00%    100.00% |           0      0.00%    100.00% |           0      0.00%    100.00% |           0      0.00%    100.00% |           0      0.00%    100.00% |           0      0.00%    100.00% |           0      0.00%    100.00% |           0      0.00%    100.00%
system.ruby.L1Cache.hit_mach_latency_hist_seqr::total    638753862                      
system.ruby.L1Cache_Controller.Ack                154      0.00%      0.00%
system.ruby.L1Cache_Controller.All_acks_no_sharers       568970      0.00%      0.00%
system.ruby.L1Cache_Controller.Complete_L2_to_L1      7147031      0.00%      0.00%
system.ruby.L1Cache_Controller.Exclusive_Data       568816      0.00%      0.00%
system.ruby.L1Cache_Controller.I.Ifetch         15948      0.00%      0.00%
system.ruby.L1Cache_Controller.I.Load          167712      0.00%      0.00%
system.ruby.L1Cache_Controller.I.NC_DMA_GETS          551      0.00%      0.00%
system.ruby.L1Cache_Controller.I.Other_GETX        39292      0.00%      0.00%
system.ruby.L1Cache_Controller.I.Store         385156      0.00%      0.00%
system.ruby.L1Cache_Controller.IM.Exclusive_Data       385156      0.00%      0.00%
system.ruby.L1Cache_Controller.IS.Exclusive_Data       183660      0.00%      0.00%
system.ruby.L1Cache_Controller.Ifetch       514452723      0.00%      0.00%
system.ruby.L1Cache_Controller.L1_to_L2       7714114      0.00%      0.00%
system.ruby.L1Cache_Controller.L2_Replacement       533240      0.00%      0.00%
system.ruby.L1Cache_Controller.Load         101402326      0.00%      0.00%
system.ruby.L1Cache_Controller.M.Ifetch     510756980      0.00%      0.00%
system.ruby.L1Cache_Controller.M.L1_to_L2      1165567      0.00%      0.00%
system.ruby.L1Cache_Controller.M.L2_Replacement        26651      0.00%      0.00%
system.ruby.L1Cache_Controller.M.Load         4221619      0.00%      0.00%
system.ruby.L1Cache_Controller.M.NC_DMA_GETS            6      0.00%      0.00%
system.ruby.L1Cache_Controller.M.Other_GETX           28      0.00%      0.00%
system.ruby.L1Cache_Controller.M.Store         143094      0.00%      0.00%
system.ruby.L1Cache_Controller.M.Trigger_L2_to_L1D       146229      0.00%      0.00%
system.ruby.L1Cache_Controller.M.Trigger_L2_to_L1I       983319      0.00%      0.00%
system.ruby.L1Cache_Controller.MI.Ifetch            8      0.00%      0.00%
system.ruby.L1Cache_Controller.MI.Load             57      0.00%      0.00%
system.ruby.L1Cache_Controller.MI.Store            50      0.00%      0.00%
system.ruby.L1Cache_Controller.MI.Writeback_Ack       533239      0.00%      0.00%
system.ruby.L1Cache_Controller.MM.Ifetch      2672159      0.00%      0.00%
system.ruby.L1Cache_Controller.MM.L1_to_L2      6548350      0.00%      0.00%
system.ruby.L1Cache_Controller.MM.L2_Replacement       506588      0.00%      0.00%
system.ruby.L1Cache_Controller.MM.Load       91076090      0.00%      0.00%
system.ruby.L1Cache_Controller.MM.NC_DMA_GETS          177      0.00%      0.00%
system.ruby.L1Cache_Controller.MM.Other_GETX         3224      0.00%      0.00%
system.ruby.L1Cache_Controller.MM.Store      29884015      0.00%      0.00%
system.ruby.L1Cache_Controller.MM.Trigger_L2_to_L1D      5992995      0.00%      0.00%
system.ruby.L1Cache_Controller.MM.Trigger_L2_to_L1I        24309      0.00%      0.00%
system.ruby.L1Cache_Controller.MMR.Ifetch        24309      0.00%      0.00%
system.ruby.L1Cache_Controller.MMR.Load       5794394      0.00%      0.00%
system.ruby.L1Cache_Controller.MMR.Store       198601      0.00%      0.00%
system.ruby.L1Cache_Controller.MMT.Complete_L2_to_L1      6017304      0.00%      0.00%
system.ruby.L1Cache_Controller.MM_W.All_acks_no_sharers       385156      0.00%      0.00%
system.ruby.L1Cache_Controller.MR.Ifetch       983319      0.00%      0.00%
system.ruby.L1Cache_Controller.MR.Load         142370      0.00%      0.00%
system.ruby.L1Cache_Controller.MR.Store          3859      0.00%      0.00%
system.ruby.L1Cache_Controller.MT.Complete_L2_to_L1      1129548      0.00%      0.00%
system.ruby.L1Cache_Controller.M_W.All_acks_no_sharers       183660      0.00%      0.00%
system.ruby.L1Cache_Controller.NC_DMA_GETS         1202      0.00%      0.00%
system.ruby.L1Cache_Controller.O.L1_to_L2          197      0.00%      0.00%
system.ruby.L1Cache_Controller.O.L2_Replacement            1      0.00%      0.00%
system.ruby.L1Cache_Controller.O.Load              59      0.00%      0.00%
system.ruby.L1Cache_Controller.O.NC_DMA_GETS          468      0.00%      0.00%
system.ruby.L1Cache_Controller.O.Trigger_L2_to_L1D          179      0.00%      0.00%
system.ruby.L1Cache_Controller.OI.Writeback_Ack            1      0.00%      0.00%
system.ruby.L1Cache_Controller.OM.Ack             154      0.00%      0.00%
system.ruby.L1Cache_Controller.OM.All_acks_no_sharers          154      0.00%      0.00%
system.ruby.L1Cache_Controller.OR.Load             25      0.00%      0.00%
system.ruby.L1Cache_Controller.OR.Store           154      0.00%      0.00%
system.ruby.L1Cache_Controller.OT.Complete_L2_to_L1          179      0.00%      0.00%
system.ruby.L1Cache_Controller.Other_GETX        42544      0.00%      0.00%
system.ruby.L1Cache_Controller.Store         30614929      0.00%      0.00%
system.ruby.L1Cache_Controller.Trigger_L2_to_L1D      6139403      0.00%      0.00%
system.ruby.L1Cache_Controller.Trigger_L2_to_L1I      1007628      0.00%      0.00%
system.ruby.L1Cache_Controller.Writeback_Ack       533240      0.00%      0.00%
system.ruby.L2Cache.hit_mach_latency_hist_seqr::bucket_size            1                      
system.ruby.L2Cache.hit_mach_latency_hist_seqr::max_bucket            9                      
system.ruby.L2Cache.hit_mach_latency_hist_seqr::samples      7147031                      
system.ruby.L2Cache.hit_mach_latency_hist_seqr |     7147031    100.00%    100.00% |           0      0.00%    100.00% |           0      0.00%    100.00% |           0      0.00%    100.00% |           0      0.00%    100.00% |           0      0.00%    100.00% |           0      0.00%    100.00% |           0      0.00%    100.00% |           0      0.00%    100.00% |           0      0.00%    100.00%
system.ruby.L2Cache.hit_mach_latency_hist_seqr::total      7147031                      
system.ruby.LD.Directory.miss_type_mach_latency_hist_seqr::bucket_size           16                      
system.ruby.LD.Directory.miss_type_mach_latency_hist_seqr::max_bucket          159                      
system.ruby.LD.Directory.miss_type_mach_latency_hist_seqr::samples       167712                      
system.ruby.LD.Directory.miss_type_mach_latency_hist_seqr::mean     0.000841                      
system.ruby.LD.Directory.miss_type_mach_latency_hist_seqr::stdev     0.344300                      
system.ruby.LD.Directory.miss_type_mach_latency_hist_seqr |      167711    100.00%    100.00% |           0      0.00%    100.00% |           0      0.00%    100.00% |           0      0.00%    100.00% |           0      0.00%    100.00% |           0      0.00%    100.00% |           0      0.00%    100.00% |           0      0.00%    100.00% |           1      0.00%    100.00% |           0      0.00%    100.00%
system.ruby.LD.Directory.miss_type_mach_latency_hist_seqr::total       167712                      
system.ruby.LD.L1Cache.hit_type_mach_latency_hist_seqr::bucket_size            1                      
system.ruby.LD.L1Cache.hit_type_mach_latency_hist_seqr::max_bucket            9                      
system.ruby.LD.L1Cache.hit_type_mach_latency_hist_seqr::samples     95297768                      
system.ruby.LD.L1Cache.hit_type_mach_latency_hist_seqr |    95297768    100.00%    100.00% |           0      0.00%    100.00% |           0      0.00%    100.00% |           0      0.00%    100.00% |           0      0.00%    100.00% |           0      0.00%    100.00% |           0      0.00%    100.00% |           0      0.00%    100.00% |           0      0.00%    100.00% |           0      0.00%    100.00%
system.ruby.LD.L1Cache.hit_type_mach_latency_hist_seqr::total     95297768                      
system.ruby.LD.L2Cache.hit_type_mach_latency_hist_seqr::bucket_size            1                      
system.ruby.LD.L2Cache.hit_type_mach_latency_hist_seqr::max_bucket            9                      
system.ruby.LD.L2Cache.hit_type_mach_latency_hist_seqr::samples      5936789                      
system.ruby.LD.L2Cache.hit_type_mach_latency_hist_seqr |     5936789    100.00%    100.00% |           0      0.00%    100.00% |           0      0.00%    100.00% |           0      0.00%    100.00% |           0      0.00%    100.00% |           0      0.00%    100.00% |           0      0.00%    100.00% |           0      0.00%    100.00% |           0      0.00%    100.00% |           0      0.00%    100.00%
system.ruby.LD.L2Cache.hit_type_mach_latency_hist_seqr::total      5936789                      
system.ruby.LD.hit_latency_hist_seqr::bucket_size            1                      
system.ruby.LD.hit_latency_hist_seqr::max_bucket            9                      
system.ruby.LD.hit_latency_hist_seqr::samples    101234557                      
system.ruby.LD.hit_latency_hist_seqr     |   101234557    100.00%    100.00% |           0      0.00%    100.00% |           0      0.00%    100.00% |           0      0.00%    100.00% |           0      0.00%    100.00% |           0      0.00%    100.00% |           0      0.00%    100.00% |           0      0.00%    100.00% |           0      0.00%    100.00% |           0      0.00%    100.00%
system.ruby.LD.hit_latency_hist_seqr::total    101234557                      
system.ruby.LD.latency_hist_seqr::bucket_size           16                      
system.ruby.LD.latency_hist_seqr::max_bucket          159                      
system.ruby.LD.latency_hist_seqr::samples    101402269                      
system.ruby.LD.latency_hist_seqr::mean       0.000001                      
system.ruby.LD.latency_hist_seqr::stdev      0.014002                      
system.ruby.LD.latency_hist_seqr         |   101402268    100.00%    100.00% |           0      0.00%    100.00% |           0      0.00%    100.00% |           0      0.00%    100.00% |           0      0.00%    100.00% |           0      0.00%    100.00% |           0      0.00%    100.00% |           0      0.00%    100.00% |           1      0.00%    100.00% |           0      0.00%    100.00%
system.ruby.LD.latency_hist_seqr::total     101402269                      
system.ruby.LD.miss_latency_hist_seqr::bucket_size           16                      
system.ruby.LD.miss_latency_hist_seqr::max_bucket          159                      
system.ruby.LD.miss_latency_hist_seqr::samples       167712                      
system.ruby.LD.miss_latency_hist_seqr::mean     0.000841                      
system.ruby.LD.miss_latency_hist_seqr::stdev     0.344300                      
system.ruby.LD.miss_latency_hist_seqr    |      167711    100.00%    100.00% |           0      0.00%    100.00% |           0      0.00%    100.00% |           0      0.00%    100.00% |           0      0.00%    100.00% |           0      0.00%    100.00% |           0      0.00%    100.00% |           0      0.00%    100.00% |           1      0.00%    100.00% |           0      0.00%    100.00%
system.ruby.LD.miss_latency_hist_seqr::total       167712                      
system.ruby.Locked_RMW_Read.Directory.miss_type_mach_latency_hist_seqr::bucket_size            1                      
system.ruby.Locked_RMW_Read.Directory.miss_type_mach_latency_hist_seqr::max_bucket            9                      
system.ruby.Locked_RMW_Read.Directory.miss_type_mach_latency_hist_seqr::samples           77                      
system.ruby.Locked_RMW_Read.Directory.miss_type_mach_latency_hist_seqr |          77    100.00%    100.00% |           0      0.00%    100.00% |           0      0.00%    100.00% |           0      0.00%    100.00% |           0      0.00%    100.00% |           0      0.00%    100.00% |           0      0.00%    100.00% |           0      0.00%    100.00% |           0      0.00%    100.00% |           0      0.00%    100.00%
system.ruby.Locked_RMW_Read.Directory.miss_type_mach_latency_hist_seqr::total           77                      
system.ruby.Locked_RMW_Read.L1Cache.hit_type_mach_latency_hist_seqr::bucket_size            1                      
system.ruby.Locked_RMW_Read.L1Cache.hit_type_mach_latency_hist_seqr::max_bucket            9                      
system.ruby.Locked_RMW_Read.L1Cache.hit_type_mach_latency_hist_seqr::samples       422849                      
system.ruby.Locked_RMW_Read.L1Cache.hit_type_mach_latency_hist_seqr |      422849    100.00%    100.00% |           0      0.00%    100.00% |           0      0.00%    100.00% |           0      0.00%    100.00% |           0      0.00%    100.00% |           0      0.00%    100.00% |           0      0.00%    100.00% |           0      0.00%    100.00% |           0      0.00%    100.00% |           0      0.00%    100.00%
system.ruby.Locked_RMW_Read.L1Cache.hit_type_mach_latency_hist_seqr::total       422849                      
system.ruby.Locked_RMW_Read.L2Cache.hit_type_mach_latency_hist_seqr::bucket_size            1                      
system.ruby.Locked_RMW_Read.L2Cache.hit_type_mach_latency_hist_seqr::max_bucket            9                      
system.ruby.Locked_RMW_Read.L2Cache.hit_type_mach_latency_hist_seqr::samples         2236                      
system.ruby.Locked_RMW_Read.L2Cache.hit_type_mach_latency_hist_seqr |        2236    100.00%    100.00% |           0      0.00%    100.00% |           0      0.00%    100.00% |           0      0.00%    100.00% |           0      0.00%    100.00% |           0      0.00%    100.00% |           0      0.00%    100.00% |           0      0.00%    100.00% |           0      0.00%    100.00% |           0      0.00%    100.00%
system.ruby.Locked_RMW_Read.L2Cache.hit_type_mach_latency_hist_seqr::total         2236                      
system.ruby.Locked_RMW_Read.hit_latency_hist_seqr::bucket_size            1                      
system.ruby.Locked_RMW_Read.hit_latency_hist_seqr::max_bucket            9                      
system.ruby.Locked_RMW_Read.hit_latency_hist_seqr::samples       425085                      
system.ruby.Locked_RMW_Read.hit_latency_hist_seqr |      425085    100.00%    100.00% |           0      0.00%    100.00% |           0      0.00%    100.00% |           0      0.00%    100.00% |           0      0.00%    100.00% |           0      0.00%    100.00% |           0      0.00%    100.00% |           0      0.00%    100.00% |           0      0.00%    100.00% |           0      0.00%    100.00%
system.ruby.Locked_RMW_Read.hit_latency_hist_seqr::total       425085                      
system.ruby.Locked_RMW_Read.latency_hist_seqr::bucket_size            1                      
system.ruby.Locked_RMW_Read.latency_hist_seqr::max_bucket            9                      
system.ruby.Locked_RMW_Read.latency_hist_seqr::samples       425162                      
system.ruby.Locked_RMW_Read.latency_hist_seqr |      425162    100.00%    100.00% |           0      0.00%    100.00% |           0      0.00%    100.00% |           0      0.00%    100.00% |           0      0.00%    100.00% |           0      0.00%    100.00% |           0      0.00%    100.00% |           0      0.00%    100.00% |           0      0.00%    100.00% |           0      0.00%    100.00%
system.ruby.Locked_RMW_Read.latency_hist_seqr::total       425162                      
system.ruby.Locked_RMW_Read.miss_latency_hist_seqr::bucket_size            1                      
system.ruby.Locked_RMW_Read.miss_latency_hist_seqr::max_bucket            9                      
system.ruby.Locked_RMW_Read.miss_latency_hist_seqr::samples           77                      
system.ruby.Locked_RMW_Read.miss_latency_hist_seqr |          77    100.00%    100.00% |           0      0.00%    100.00% |           0      0.00%    100.00% |           0      0.00%    100.00% |           0      0.00%    100.00% |           0      0.00%    100.00% |           0      0.00%    100.00% |           0      0.00%    100.00% |           0      0.00%    100.00% |           0      0.00%    100.00%
system.ruby.Locked_RMW_Read.miss_latency_hist_seqr::total           77                      
system.ruby.Locked_RMW_Write.L1Cache.hit_type_mach_latency_hist_seqr::bucket_size            1                      
system.ruby.Locked_RMW_Write.L1Cache.hit_type_mach_latency_hist_seqr::max_bucket            9                      
system.ruby.Locked_RMW_Write.L1Cache.hit_type_mach_latency_hist_seqr::samples       425162                      
system.ruby.Locked_RMW_Write.L1Cache.hit_type_mach_latency_hist_seqr |      425162    100.00%    100.00% |           0      0.00%    100.00% |           0      0.00%    100.00% |           0      0.00%    100.00% |           0      0.00%    100.00% |           0      0.00%    100.00% |           0      0.00%    100.00% |           0      0.00%    100.00% |           0      0.00%    100.00% |           0      0.00%    100.00%
system.ruby.Locked_RMW_Write.L1Cache.hit_type_mach_latency_hist_seqr::total       425162                      
system.ruby.Locked_RMW_Write.hit_latency_hist_seqr::bucket_size            1                      
system.ruby.Locked_RMW_Write.hit_latency_hist_seqr::max_bucket            9                      
system.ruby.Locked_RMW_Write.hit_latency_hist_seqr::samples       425162                      
system.ruby.Locked_RMW_Write.hit_latency_hist_seqr |      425162    100.00%    100.00% |           0      0.00%    100.00% |           0      0.00%    100.00% |           0      0.00%    100.00% |           0      0.00%    100.00% |           0      0.00%    100.00% |           0      0.00%    100.00% |           0      0.00%    100.00% |           0      0.00%    100.00% |           0      0.00%    100.00%
system.ruby.Locked_RMW_Write.hit_latency_hist_seqr::total       425162                      
system.ruby.Locked_RMW_Write.latency_hist_seqr::bucket_size            1                      
system.ruby.Locked_RMW_Write.latency_hist_seqr::max_bucket            9                      
system.ruby.Locked_RMW_Write.latency_hist_seqr::samples       425162                      
system.ruby.Locked_RMW_Write.latency_hist_seqr |      425162    100.00%    100.00% |           0      0.00%    100.00% |           0      0.00%    100.00% |           0      0.00%    100.00% |           0      0.00%    100.00% |           0      0.00%    100.00% |           0      0.00%    100.00% |           0      0.00%    100.00% |           0      0.00%    100.00% |           0      0.00%    100.00%
system.ruby.Locked_RMW_Write.latency_hist_seqr::total       425162                      
system.ruby.RMW_Read.Directory.miss_type_mach_latency_hist_seqr::bucket_size            1                      
system.ruby.RMW_Read.Directory.miss_type_mach_latency_hist_seqr::max_bucket            9                      
system.ruby.RMW_Read.Directory.miss_type_mach_latency_hist_seqr::samples          774                      
system.ruby.RMW_Read.Directory.miss_type_mach_latency_hist_seqr |         774    100.00%    100.00% |           0      0.00%    100.00% |           0      0.00%    100.00% |           0      0.00%    100.00% |           0      0.00%    100.00% |           0      0.00%    100.00% |           0      0.00%    100.00% |           0      0.00%    100.00% |           0      0.00%    100.00% |           0      0.00%    100.00%
system.ruby.RMW_Read.Directory.miss_type_mach_latency_hist_seqr::total          774                      
system.ruby.RMW_Read.L1Cache.hit_type_mach_latency_hist_seqr::bucket_size            1                      
system.ruby.RMW_Read.L1Cache.hit_type_mach_latency_hist_seqr::max_bucket            9                      
system.ruby.RMW_Read.L1Cache.hit_type_mach_latency_hist_seqr::samples       855958                      
system.ruby.RMW_Read.L1Cache.hit_type_mach_latency_hist_seqr |      855958    100.00%    100.00% |           0      0.00%    100.00% |           0      0.00%    100.00% |           0      0.00%    100.00% |           0      0.00%    100.00% |           0      0.00%    100.00% |           0      0.00%    100.00% |           0      0.00%    100.00% |           0      0.00%    100.00% |           0      0.00%    100.00%
system.ruby.RMW_Read.L1Cache.hit_type_mach_latency_hist_seqr::total       855958                      
system.ruby.RMW_Read.L2Cache.hit_type_mach_latency_hist_seqr::bucket_size            1                      
system.ruby.RMW_Read.L2Cache.hit_type_mach_latency_hist_seqr::max_bucket            9                      
system.ruby.RMW_Read.L2Cache.hit_type_mach_latency_hist_seqr::samples        26834                      
system.ruby.RMW_Read.L2Cache.hit_type_mach_latency_hist_seqr |       26834    100.00%    100.00% |           0      0.00%    100.00% |           0      0.00%    100.00% |           0      0.00%    100.00% |           0      0.00%    100.00% |           0      0.00%    100.00% |           0      0.00%    100.00% |           0      0.00%    100.00% |           0      0.00%    100.00% |           0      0.00%    100.00%
system.ruby.RMW_Read.L2Cache.hit_type_mach_latency_hist_seqr::total        26834                      
system.ruby.RMW_Read.hit_latency_hist_seqr::bucket_size            1                      
system.ruby.RMW_Read.hit_latency_hist_seqr::max_bucket            9                      
system.ruby.RMW_Read.hit_latency_hist_seqr::samples       882792                      
system.ruby.RMW_Read.hit_latency_hist_seqr |      882792    100.00%    100.00% |           0      0.00%    100.00% |           0      0.00%    100.00% |           0      0.00%    100.00% |           0      0.00%    100.00% |           0      0.00%    100.00% |           0      0.00%    100.00% |           0      0.00%    100.00% |           0      0.00%    100.00% |           0      0.00%    100.00%
system.ruby.RMW_Read.hit_latency_hist_seqr::total       882792                      
system.ruby.RMW_Read.latency_hist_seqr::bucket_size            1                      
system.ruby.RMW_Read.latency_hist_seqr::max_bucket            9                      
system.ruby.RMW_Read.latency_hist_seqr::samples       883566                      
system.ruby.RMW_Read.latency_hist_seqr   |      883566    100.00%    100.00% |           0      0.00%    100.00% |           0      0.00%    100.00% |           0      0.00%    100.00% |           0      0.00%    100.00% |           0      0.00%    100.00% |           0      0.00%    100.00% |           0      0.00%    100.00% |           0      0.00%    100.00% |           0      0.00%    100.00%
system.ruby.RMW_Read.latency_hist_seqr::total       883566                      
system.ruby.RMW_Read.miss_latency_hist_seqr::bucket_size            1                      
system.ruby.RMW_Read.miss_latency_hist_seqr::max_bucket            9                      
system.ruby.RMW_Read.miss_latency_hist_seqr::samples          774                      
system.ruby.RMW_Read.miss_latency_hist_seqr |         774    100.00%    100.00% |           0      0.00%    100.00% |           0      0.00%    100.00% |           0      0.00%    100.00% |           0      0.00%    100.00% |           0      0.00%    100.00% |           0      0.00%    100.00% |           0      0.00%    100.00% |           0      0.00%    100.00% |           0      0.00%    100.00%
system.ruby.RMW_Read.miss_latency_hist_seqr::total          774                      
system.ruby.ST.Directory.miss_type_mach_latency_hist_seqr::bucket_size            1                      
system.ruby.ST.Directory.miss_type_mach_latency_hist_seqr::max_bucket            9                      
system.ruby.ST.Directory.miss_type_mach_latency_hist_seqr::samples       384459                      
system.ruby.ST.Directory.miss_type_mach_latency_hist_seqr |      384459    100.00%    100.00% |           0      0.00%    100.00% |           0      0.00%    100.00% |           0      0.00%    100.00% |           0      0.00%    100.00% |           0      0.00%    100.00% |           0      0.00%    100.00% |           0      0.00%    100.00% |           0      0.00%    100.00% |           0      0.00%    100.00%
system.ruby.ST.Directory.miss_type_mach_latency_hist_seqr::total       384459                      
system.ruby.ST.L1Cache.hit_type_mach_latency_hist_seqr::bucket_size            1                      
system.ruby.ST.L1Cache.hit_type_mach_latency_hist_seqr::max_bucket            9                      
system.ruby.ST.L1Cache.hit_type_mach_latency_hist_seqr::samples     28322986                      
system.ruby.ST.L1Cache.hit_type_mach_latency_hist_seqr |    28322986    100.00%    100.00% |           0      0.00%    100.00% |           0      0.00%    100.00% |           0      0.00%    100.00% |           0      0.00%    100.00% |           0      0.00%    100.00% |           0      0.00%    100.00% |           0      0.00%    100.00% |           0      0.00%    100.00% |           0      0.00%    100.00%
system.ruby.ST.L1Cache.hit_type_mach_latency_hist_seqr::total     28322986                      
system.ruby.ST.L2Cache.hit_type_mach_latency_hist_seqr::bucket_size            1                      
system.ruby.ST.L2Cache.hit_type_mach_latency_hist_seqr::max_bucket            9                      
system.ruby.ST.L2Cache.hit_type_mach_latency_hist_seqr::samples       173544                      
system.ruby.ST.L2Cache.hit_type_mach_latency_hist_seqr |      173544    100.00%    100.00% |           0      0.00%    100.00% |           0      0.00%    100.00% |           0      0.00%    100.00% |           0      0.00%    100.00% |           0      0.00%    100.00% |           0      0.00%    100.00% |           0      0.00%    100.00% |           0      0.00%    100.00% |           0      0.00%    100.00%
system.ruby.ST.L2Cache.hit_type_mach_latency_hist_seqr::total       173544                      
system.ruby.ST.hit_latency_hist_seqr::bucket_size            1                      
system.ruby.ST.hit_latency_hist_seqr::max_bucket            9                      
system.ruby.ST.hit_latency_hist_seqr::samples     28496530                      
system.ruby.ST.hit_latency_hist_seqr     |    28496530    100.00%    100.00% |           0      0.00%    100.00% |           0      0.00%    100.00% |           0      0.00%    100.00% |           0      0.00%    100.00% |           0      0.00%    100.00% |           0      0.00%    100.00% |           0      0.00%    100.00% |           0      0.00%    100.00% |           0      0.00%    100.00%
system.ruby.ST.hit_latency_hist_seqr::total     28496530                      
system.ruby.ST.latency_hist_seqr::bucket_size            1                      
system.ruby.ST.latency_hist_seqr::max_bucket            9                      
system.ruby.ST.latency_hist_seqr::samples     28880989                      
system.ruby.ST.latency_hist_seqr         |    28880989    100.00%    100.00% |           0      0.00%    100.00% |           0      0.00%    100.00% |           0      0.00%    100.00% |           0      0.00%    100.00% |           0      0.00%    100.00% |           0      0.00%    100.00% |           0      0.00%    100.00% |           0      0.00%    100.00% |           0      0.00%    100.00%
system.ruby.ST.latency_hist_seqr::total      28880989                      
system.ruby.ST.miss_latency_hist_seqr::bucket_size            1                      
system.ruby.ST.miss_latency_hist_seqr::max_bucket            9                      
system.ruby.ST.miss_latency_hist_seqr::samples       384459                      
system.ruby.ST.miss_latency_hist_seqr    |      384459    100.00%    100.00% |           0      0.00%    100.00% |           0      0.00%    100.00% |           0      0.00%    100.00% |           0      0.00%    100.00% |           0      0.00%    100.00% |           0      0.00%    100.00% |           0      0.00%    100.00% |           0      0.00%    100.00% |           0      0.00%    100.00%
system.ruby.ST.miss_latency_hist_seqr::total       384459                      
system.ruby.dir_cntrl0.dmaRequestToDir.avg_buf_msgs     0.000004                       # Average number of messages in buffer
system.ruby.dir_cntrl0.dmaRequestToDir.avg_stall_time   187.274389                       # Average number of cycles messages are stalled in this MB
system.ruby.dir_cntrl0.dmaResponseFromDir.avg_buf_msgs     0.000004                       # Average number of messages in buffer
system.ruby.dir_cntrl0.dmaResponseFromDir.avg_stall_time    12.259016                       # Average number of cycles messages are stalled in this MB
system.ruby.dir_cntrl0.forwardFromDir.avg_buf_msgs     0.000113                       # Average number of messages in buffer
system.ruby.dir_cntrl0.forwardFromDir.avg_stall_time  1000.953552                       # Average number of cycles messages are stalled in this MB
system.ruby.dir_cntrl0.probeFilter.demand_accesses            0                       # Number of cache demand accesses
system.ruby.dir_cntrl0.probeFilter.demand_hits            0                       # Number of cache demand hits
system.ruby.dir_cntrl0.probeFilter.demand_misses            0                       # Number of cache demand misses
system.ruby.dir_cntrl0.requestToDir.avg_buf_msgs     0.000108                       # Average number of messages in buffer
system.ruby.dir_cntrl0.requestToDir.avg_stall_time  4009.377576                       # Average number of cycles messages are stalled in this MB
system.ruby.dir_cntrl0.requestToDir.num_msg_stalls          115                       # Number of times messages were stalled
system.ruby.dir_cntrl0.requestToMemory.avg_buf_msgs     0.000110                       # Average number of messages in buffer
system.ruby.dir_cntrl0.requestToMemory.avg_stall_time   501.005654                       # Average number of cycles messages are stalled in this MB
system.ruby.dir_cntrl0.responseFromDir.avg_buf_msgs     0.000056                       # Average number of messages in buffer
system.ruby.dir_cntrl0.responseFromDir.avg_stall_time   500.999993                       # Average number of cycles messages are stalled in this MB
system.ruby.dir_cntrl0.responseFromMemory.avg_buf_msgs     0.000145                       # Average number of messages in buffer
system.ruby.dir_cntrl0.responseFromMemory.avg_stall_time   500.999993                       # Average number of cycles messages are stalled in this MB
system.ruby.dir_cntrl0.responseToDir.avg_buf_msgs     0.000004                       # Average number of messages in buffer
system.ruby.dir_cntrl0.responseToDir.avg_stall_time   208.232314                       # Average number of cycles messages are stalled in this MB
system.ruby.dir_cntrl0.triggerQueue.avg_buf_msgs     0.000004                       # Average number of messages in buffer
system.ruby.dir_cntrl0.triggerQueue.avg_stall_time    12.259016                       # Average number of cycles messages are stalled in this MB
system.ruby.dir_cntrl0.unblockToDir.avg_buf_msgs     0.000108                       # Average number of messages in buffer
system.ruby.dir_cntrl0.unblockToDir.avg_stall_time  8016.003710                       # Average number of cycles messages are stalled in this MB
system.ruby.dma_cntrl0.mandatoryQueue.avg_buf_msgs     0.000006                       # Average number of messages in buffer
system.ruby.dma_cntrl0.mandatoryQueue.avg_stall_time    12.259018                       # Average number of cycles messages are stalled in this MB
system.ruby.dma_cntrl0.requestToDir.avg_buf_msgs     0.000026                       # Average number of messages in buffer
system.ruby.dma_cntrl0.requestToDir.avg_stall_time    73.554104                       # Average number of cycles messages are stalled in this MB
system.ruby.dma_cntrl0.responseFromDir.avg_buf_msgs     0.000004                       # Average number of messages in buffer
system.ruby.dma_cntrl0.responseFromDir.avg_stall_time    85.813322                       # Average number of cycles messages are stalled in this MB
system.ruby.hit_latency_hist_seqr::bucket_size            1                      
system.ruby.hit_latency_hist_seqr::max_bucket            9                      
system.ruby.hit_latency_hist_seqr::samples    645900893                      
system.ruby.hit_latency_hist_seqr        |   645900893    100.00%    100.00% |           0      0.00%    100.00% |           0      0.00%    100.00% |           0      0.00%    100.00% |           0      0.00%    100.00% |           0      0.00%    100.00% |           0      0.00%    100.00% |           0      0.00%    100.00% |           0      0.00%    100.00% |           0      0.00%    100.00%
system.ruby.hit_latency_hist_seqr::total    645900893                      
system.ruby.l1_cntrl0.L1Dcache.demand_accesses    132017148                       # Number of cache demand accesses
system.ruby.l1_cntrl0.L1Dcache.demand_hits    125324877                       # Number of cache demand hits
system.ruby.l1_cntrl0.L1Dcache.demand_misses      6692271                       # Number of cache demand misses
system.ruby.l1_cntrl0.L1Icache.demand_accesses    514452715                       # Number of cache demand accesses
system.ruby.l1_cntrl0.L1Icache.demand_hits    513429139                       # Number of cache demand hits
system.ruby.l1_cntrl0.L1Icache.demand_misses      1023576                       # Number of cache demand misses
system.ruby.l1_cntrl0.L2cache.demand_accesses      7715847                       # Number of cache demand accesses
system.ruby.l1_cntrl0.L2cache.demand_hits      7146877                       # Number of cache demand hits
system.ruby.l1_cntrl0.L2cache.demand_misses       568970                       # Number of cache demand misses
system.ruby.l1_cntrl0.forwardToCache.avg_buf_msgs     0.000056                       # Average number of messages in buffer
system.ruby.l1_cntrl0.forwardToCache.avg_stall_time  4003.814228                       # Average number of cycles messages are stalled in this MB
system.ruby.l1_cntrl0.fully_busy_cycles           651                       # cycles for which number of transistions == max transitions
system.ruby.l1_cntrl0.mandatoryQueue.avg_buf_msgs     0.070143                       # Average number of messages in buffer
system.ruby.l1_cntrl0.mandatoryQueue.avg_stall_time   508.006425                       # Average number of cycles messages are stalled in this MB
system.ruby.l1_cntrl0.mandatoryQueue.num_msg_stalls      7147146                       # Number of times messages were stalled
system.ruby.l1_cntrl0.requestFromCache.avg_buf_msgs     0.000215                       # Average number of messages in buffer
system.ruby.l1_cntrl0.requestFromCache.avg_stall_time  1002.000000                       # Average number of cycles messages are stalled in this MB
system.ruby.l1_cntrl0.responseFromCache.avg_buf_msgs     0.000043                       # Average number of messages in buffer
system.ruby.l1_cntrl0.responseFromCache.avg_stall_time   122.590161                       # Average number of cycles messages are stalled in this MB
system.ruby.l1_cntrl0.responseToCache.avg_buf_msgs     0.000056                       # Average number of messages in buffer
system.ruby.l1_cntrl0.responseToCache.avg_stall_time  3506.999952                       # Average number of cycles messages are stalled in this MB
system.ruby.l1_cntrl0.triggerQueue.avg_buf_msgs     0.007038                       # Average number of messages in buffer
system.ruby.l1_cntrl0.triggerQueue.avg_stall_time  4596.560221                       # Average number of cycles messages are stalled in this MB
system.ruby.l1_cntrl0.unblockFromCache.avg_buf_msgs     0.001077                       # Average number of messages in buffer
system.ruby.l1_cntrl0.unblockFromCache.avg_stall_time  5009.999926                       # Average number of cycles messages are stalled in this MB
system.ruby.latency_hist_seqr::bucket_size           16                      
system.ruby.latency_hist_seqr::max_bucket          159                      
system.ruby.latency_hist_seqr::samples      646469863                      
system.ruby.latency_hist_seqr::mean          0.000000                      
system.ruby.latency_hist_seqr::stdev         0.005546                      
system.ruby.latency_hist_seqr            |   646469862    100.00%    100.00% |           0      0.00%    100.00% |           0      0.00%    100.00% |           0      0.00%    100.00% |           0      0.00%    100.00% |           0      0.00%    100.00% |           0      0.00%    100.00% |           0      0.00%    100.00% |           1      0.00%    100.00% |           0      0.00%    100.00%
system.ruby.latency_hist_seqr::total        646469863                      
system.ruby.miss_latency_hist_seqr::bucket_size           16                      
system.ruby.miss_latency_hist_seqr::max_bucket          159                      
system.ruby.miss_latency_hist_seqr::samples       568970                      
system.ruby.miss_latency_hist_seqr::mean     0.000248                      
system.ruby.miss_latency_hist_seqr::stdev     0.186928                      
system.ruby.miss_latency_hist_seqr       |      568969    100.00%    100.00% |           0      0.00%    100.00% |           0      0.00%    100.00% |           0      0.00%    100.00% |           0      0.00%    100.00% |           0      0.00%    100.00% |           0      0.00%    100.00% |           0      0.00%    100.00% |           1      0.00%    100.00% |           0      0.00%    100.00%
system.ruby.miss_latency_hist_seqr::total       568970                      
system.ruby.network.int_link_buffers02.avg_buf_msgs     0.000108                       # Average number of messages in buffer
system.ruby.network.int_link_buffers02.avg_stall_time  2005.177923                       # Average number of cycles messages are stalled in this MB
system.ruby.network.int_link_buffers04.avg_buf_msgs     0.000004                       # Average number of messages in buffer
system.ruby.network.int_link_buffers04.avg_stall_time   159.195931                       # Average number of cycles messages are stalled in this MB
system.ruby.network.int_link_buffers05.avg_buf_msgs     0.000108                       # Average number of messages in buffer
system.ruby.network.int_link_buffers05.avg_stall_time  6012.003743                       # Average number of cycles messages are stalled in this MB
system.ruby.network.int_link_buffers07.avg_buf_msgs     0.000004                       # Average number of messages in buffer
system.ruby.network.int_link_buffers07.avg_stall_time    36.777261                       # Average number of cycles messages are stalled in this MB
system.ruby.network.int_link_buffers09.avg_buf_msgs     0.000056                       # Average number of messages in buffer
system.ruby.network.int_link_buffers09.avg_stall_time  2001.907125                       # Average number of cycles messages are stalled in this MB
system.ruby.network.int_link_buffers10.avg_buf_msgs     0.000056                       # Average number of messages in buffer
system.ruby.network.int_link_buffers10.avg_stall_time  1502.999980                       # Average number of cycles messages are stalled in this MB
system.ruby.network.int_link_buffers12.avg_buf_msgs     0.000004                       # Average number of messages in buffer
system.ruby.network.int_link_buffers12.avg_stall_time    98.072137                       # Average number of cycles messages are stalled in this MB
system.ruby.network.int_link_buffers27.avg_buf_msgs     0.000056                       # Average number of messages in buffer
system.ruby.network.int_link_buffers27.avg_stall_time  3002.860677                       # Average number of cycles messages are stalled in this MB
system.ruby.network.int_link_buffers28.avg_buf_msgs     0.000056                       # Average number of messages in buffer
system.ruby.network.int_link_buffers28.avg_stall_time  2504.999966                       # Average number of cycles messages are stalled in this MB
system.ruby.network.int_link_buffers30.avg_buf_msgs     0.000004                       # Average number of messages in buffer
system.ruby.network.int_link_buffers30.avg_stall_time   162.756368                       # Average number of cycles messages are stalled in this MB
system.ruby.network.int_link_buffers32.avg_buf_msgs     0.000108                       # Average number of messages in buffer
system.ruby.network.int_link_buffers32.avg_stall_time  3007.179697                       # Average number of cycles messages are stalled in this MB
system.ruby.network.int_link_buffers34.avg_buf_msgs     0.000004                       # Average number of messages in buffer
system.ruby.network.int_link_buffers34.avg_stall_time   183.714291                       # Average number of cycles messages are stalled in this MB
system.ruby.network.int_link_buffers35.avg_buf_msgs     0.000108                       # Average number of messages in buffer
system.ruby.network.int_link_buffers35.avg_stall_time  7014.003727                       # Average number of cycles messages are stalled in this MB
system.ruby.network.int_link_buffers37.avg_buf_msgs     0.000004                       # Average number of messages in buffer
system.ruby.network.int_link_buffers37.avg_stall_time    61.295291                       # Average number of cycles messages are stalled in this MB
system.ruby.network.msg_byte.Broadcast_Control      1049904                      
system.ruby.network.msg_byte.Request_Control     13655280                      
system.ruby.network.msg_byte.Response_Control       959928                      
system.ruby.network.msg_byte.Response_Data    123966936                      
system.ruby.network.msg_byte.Unblock_Control     13655280                      
system.ruby.network.msg_byte.Writeback_Control     28306128                      
system.ruby.network.msg_byte.Writeback_Data    109423008                      
system.ruby.network.msg_count.Broadcast_Control       131238                      
system.ruby.network.msg_count.Request_Control      1706910                      
system.ruby.network.msg_count.Response_Control       119991                      
system.ruby.network.msg_count.Response_Data      1721763                      
system.ruby.network.msg_count.Unblock_Control      1706910                      
system.ruby.network.msg_count.Writeback_Control      3538266                      
system.ruby.network.msg_count.Writeback_Data      1519764                      
system.ruby.network.routers0.msg_bytes.Broadcast_Control::3       349968                      
system.ruby.network.routers0.msg_bytes.Request_Control::2      4551760                      
system.ruby.network.routers0.msg_bytes.Response_Control::4       319976                      
system.ruby.network.routers0.msg_bytes.Response_Data::4     41235768                      
system.ruby.network.routers0.msg_bytes.Unblock_Control::5      4551760                      
system.ruby.network.routers0.msg_bytes.Writeback_Control::2      4265920                      
system.ruby.network.routers0.msg_bytes.Writeback_Control::3      4265920                      
system.ruby.network.routers0.msg_bytes.Writeback_Control::5       213216                      
system.ruby.network.routers0.msg_bytes.Writeback_Data::5     36474336                      
system.ruby.network.routers0.msg_count.Broadcast_Control::3        43746                      
system.ruby.network.routers0.msg_count.Request_Control::2       568970                      
system.ruby.network.routers0.msg_count.Response_Control::4        39997                      
system.ruby.network.routers0.msg_count.Response_Data::4       572719                      
system.ruby.network.routers0.msg_count.Unblock_Control::5       568970                      
system.ruby.network.routers0.msg_count.Writeback_Control::2       533240                      
system.ruby.network.routers0.msg_count.Writeback_Control::3       533240                      
system.ruby.network.routers0.msg_count.Writeback_Control::5        26652                      
system.ruby.network.routers0.msg_count.Writeback_Data::5       506588                      
system.ruby.network.routers0.percent_links_utilized     0.029379                      
system.ruby.network.routers0.port_buffers03.avg_buf_msgs     0.000056                       # Average number of messages in buffer
system.ruby.network.routers0.port_buffers03.avg_stall_time  3503.337452                       # Average number of cycles messages are stalled in this MB
system.ruby.network.routers0.port_buffers04.avg_buf_msgs     0.000056                       # Average number of messages in buffer
system.ruby.network.routers0.port_buffers04.avg_stall_time  3005.999959                       # Average number of cycles messages are stalled in this MB
system.ruby.network.routers0.port_buffers07.avg_buf_msgs     0.000108                       # Average number of messages in buffer
system.ruby.network.routers0.port_buffers07.avg_stall_time  1504.177924                       # Average number of cycles messages are stalled in this MB
system.ruby.network.routers0.port_buffers09.avg_buf_msgs     0.000016                       # Average number of messages in buffer
system.ruby.network.routers0.port_buffers09.avg_stall_time   146.936919                       # Average number of cycles messages are stalled in this MB
system.ruby.network.routers0.port_buffers10.avg_buf_msgs     0.000108                       # Average number of messages in buffer
system.ruby.network.routers0.port_buffers10.avg_stall_time  5511.003751                       # Average number of cycles messages are stalled in this MB
system.ruby.network.routers0.throttle0.link_utilization     0.027826                      
system.ruby.network.routers0.throttle0.msg_bytes.Broadcast_Control::3       349968                      
system.ruby.network.routers0.throttle0.msg_bytes.Response_Control::4         1232                      
system.ruby.network.routers0.throttle0.msg_bytes.Response_Data::4     40954752                      
system.ruby.network.routers0.throttle0.msg_bytes.Writeback_Control::3      4265920                      
system.ruby.network.routers0.throttle0.msg_count.Broadcast_Control::3        43746                      
system.ruby.network.routers0.throttle0.msg_count.Response_Control::4          154                      
system.ruby.network.routers0.throttle0.msg_count.Response_Data::4       568816                      
system.ruby.network.routers0.throttle0.msg_count.Writeback_Control::3       533240                      
system.ruby.network.routers0.throttle1.link_utilization     0.030931                      
system.ruby.network.routers0.throttle1.msg_bytes.Request_Control::2      4551760                      
system.ruby.network.routers0.throttle1.msg_bytes.Response_Control::4       318744                      
system.ruby.network.routers0.throttle1.msg_bytes.Response_Data::4       281016                      
system.ruby.network.routers0.throttle1.msg_bytes.Unblock_Control::5      4551760                      
system.ruby.network.routers0.throttle1.msg_bytes.Writeback_Control::2      4265920                      
system.ruby.network.routers0.throttle1.msg_bytes.Writeback_Control::5       213216                      
system.ruby.network.routers0.throttle1.msg_bytes.Writeback_Data::5     36474336                      
system.ruby.network.routers0.throttle1.msg_count.Request_Control::2       568970                      
system.ruby.network.routers0.throttle1.msg_count.Response_Control::4        39843                      
system.ruby.network.routers0.throttle1.msg_count.Response_Data::4         3903                      
system.ruby.network.routers0.throttle1.msg_count.Unblock_Control::5       568970                      
system.ruby.network.routers0.throttle1.msg_count.Writeback_Control::2       533240                      
system.ruby.network.routers0.throttle1.msg_count.Writeback_Control::5        26652                      
system.ruby.network.routers0.throttle1.msg_count.Writeback_Data::5       506588                      
system.ruby.network.routers1.msg_bytes.Broadcast_Control::3       349968                      
system.ruby.network.routers1.msg_bytes.Request_Control::2      4551760                      
system.ruby.network.routers1.msg_bytes.Response_Control::4       319976                      
system.ruby.network.routers1.msg_bytes.Response_Data::1        86544                      
system.ruby.network.routers1.msg_bytes.Response_Data::4     41235768                      
system.ruby.network.routers1.msg_bytes.Unblock_Control::5      4551760                      
system.ruby.network.routers1.msg_bytes.Writeback_Control::0       349968                      
system.ruby.network.routers1.msg_bytes.Writeback_Control::1       340352                      
system.ruby.network.routers1.msg_bytes.Writeback_Control::2      4265920                      
system.ruby.network.routers1.msg_bytes.Writeback_Control::3      4265920                      
system.ruby.network.routers1.msg_bytes.Writeback_Control::5       213216                      
system.ruby.network.routers1.msg_bytes.Writeback_Data::5     36474336                      
system.ruby.network.routers1.msg_count.Broadcast_Control::3        43746                      
system.ruby.network.routers1.msg_count.Request_Control::2       568970                      
system.ruby.network.routers1.msg_count.Response_Control::4        39997                      
system.ruby.network.routers1.msg_count.Response_Data::1         1202                      
system.ruby.network.routers1.msg_count.Response_Data::4       572719                      
system.ruby.network.routers1.msg_count.Unblock_Control::5       568970                      
system.ruby.network.routers1.msg_count.Writeback_Control::0        43746                      
system.ruby.network.routers1.msg_count.Writeback_Control::1        42544                      
system.ruby.network.routers1.msg_count.Writeback_Control::2       533240                      
system.ruby.network.routers1.msg_count.Writeback_Control::3       533240                      
system.ruby.network.routers1.msg_count.Writeback_Control::5        26652                      
system.ruby.network.routers1.msg_count.Writeback_Data::5       506588                      
system.ruby.network.routers1.percent_links_utilized     0.029616                      
system.ruby.network.routers1.port_buffers00.avg_buf_msgs     0.000004                       # Average number of messages in buffer
system.ruby.network.routers1.port_buffers00.avg_stall_time   175.015378                       # Average number of cycles messages are stalled in this MB
system.ruby.network.routers1.port_buffers02.avg_buf_msgs     0.000108                       # Average number of messages in buffer
system.ruby.network.routers1.port_buffers02.avg_stall_time  3508.179697                       # Average number of cycles messages are stalled in this MB
system.ruby.network.routers1.port_buffers04.avg_buf_msgs     0.000004                       # Average number of messages in buffer
system.ruby.network.routers1.port_buffers04.avg_stall_time   195.973302                       # Average number of cycles messages are stalled in this MB
[...]
system.mem_ctrls.wrQLenPdf::62                      4                       # What write queue length does an incoming req see
system.mem_ctrls.wrQLenPdf::63                     29                       # What write queue length does an incoming req see
system.mem_ctrls.bytesPerActivate::samples         1884                       # Bytes accessed per row activation
system.mem_ctrls.bytesPerActivate::mean    168.152866                       # Bytes accessed per row activation
system.mem_ctrls.bytesPerActivate::gmean   104.497623                       # Bytes accessed per row activation
system.mem_ctrls.bytesPerActivate::stdev   240.365614                       # Bytes accessed per row activation
system.mem_ctrls.bytesPerActivate::0-127         1215     64.49%     64.49% # Bytes accessed per row activation
system.mem_ctrls.bytesPerActivate::128-255          377     20.01%     84.50% # Bytes accessed per row activation
system.mem_ctrls.bytesPerActivate::256-383          103      5.47%     89.97% # Bytes accessed per row activation
system.mem_ctrls.bytesPerActivate::384-511           31      1.65%     91.61% # Bytes accessed per row activation
system.mem_ctrls.bytesPerActivate::512-639           23      1.22%     92.83% # Bytes accessed per row activation
system.mem_ctrls.bytesPerActivate::640-767           11      0.58%     93.42% # Bytes accessed per row activation
system.mem_ctrls.bytesPerActivate::768-895            7      0.37%     93.79% # Bytes accessed per row activation
system.mem_ctrls.bytesPerActivate::896-1023           13      0.69%     94.48% # Bytes accessed per row activation
system.mem_ctrls.bytesPerActivate::1024-1151          104      5.52%    100.00% # Bytes accessed per row activation
system.mem_ctrls.bytesPerActivate::total         1884                       # Bytes accessed per row activation
system.mem_ctrls.rdPerTurnAround::samples          112                       # Reads before turning the bus around for writes
system.mem_ctrls.rdPerTurnAround::mean      24.660714                       # Reads before turning the bus around for writes
system.mem_ctrls.rdPerTurnAround::stdev     34.119175                       # Reads before turning the bus around for writes
system.mem_ctrls.rdPerTurnAround::0-7              43     38.39%     38.39% # Reads before turning the bus around for writes
system.mem_ctrls.rdPerTurnAround::8-15             13     11.61%     50.00% # Reads before turning the bus around for writes
system.mem_ctrls.rdPerTurnAround::16-23            16     14.29%     64.29% # Reads before turning the bus around for writes
system.mem_ctrls.rdPerTurnAround::24-31            10      8.93%     73.21% # Reads before turning the bus around for writes
system.mem_ctrls.rdPerTurnAround::32-39             6      5.36%     78.57% # Reads before turning the bus around for writes
system.mem_ctrls.rdPerTurnAround::40-47             6      5.36%     83.93% # Reads before turning the bus around for writes
system.mem_ctrls.rdPerTurnAround::48-55             6      5.36%     89.29% # Reads before turning the bus around for writes
system.mem_ctrls.rdPerTurnAround::56-63             4      3.57%     92.86% # Reads before turning the bus around for writes
system.mem_ctrls.rdPerTurnAround::64-71             2      1.79%     94.64% # Reads before turning the bus around for writes
system.mem_ctrls.rdPerTurnAround::72-79             1      0.89%     95.54% # Reads before turning the bus around for writes
system.mem_ctrls.rdPerTurnAround::88-95             1      0.89%     96.43% # Reads before turning the bus around for writes
system.mem_ctrls.rdPerTurnAround::96-103            1      0.89%     97.32% # Reads before turning the bus around for writes
system.mem_ctrls.rdPerTurnAround::136-143            2      1.79%     99.11% # Reads before turning the bus around for writes
system.mem_ctrls.rdPerTurnAround::248-255            1      0.89%    100.00% # Reads before turning the bus around for writes
system.mem_ctrls.rdPerTurnAround::total           112                       # Reads before turning the bus around for writes
system.mem_ctrls.wrPerTurnAround::samples          112                       # Writes before turning the bus around for reads
system.mem_ctrls.wrPerTurnAround::mean      19.223214                       # Writes before turning the bus around for reads
system.mem_ctrls.wrPerTurnAround::gmean     18.472047                       # Writes before turning the bus around for reads
system.mem_ctrls.wrPerTurnAround::stdev      8.397458                       # Writes before turning the bus around for reads
system.mem_ctrls.wrPerTurnAround::16-17            26     23.21%     23.21% # Writes before turning the bus around for reads
system.mem_ctrls.wrPerTurnAround::18-19            76     67.86%     91.07% # Writes before turning the bus around for reads
system.mem_ctrls.wrPerTurnAround::20-21             7      6.25%     97.32% # Writes before turning the bus around for reads
system.mem_ctrls.wrPerTurnAround::64-65             1      0.89%     98.21% # Writes before turning the bus around for reads
system.mem_ctrls.wrPerTurnAround::68-69             1      0.89%     99.11% # Writes before turning the bus around for reads
system.mem_ctrls.wrPerTurnAround::74-75             1      0.89%    100.00% # Writes before turning the bus around for reads
system.mem_ctrls.wrPerTurnAround::total           112                       # Writes before turning the bus around for reads
system.mem_ctrls.bytesReadDRAM                 178624                       # Total number of bytes read from DRAM
system.mem_ctrls.bytesReadWrQ                     640                       # Total number of bytes read from write queue
system.mem_ctrls.bytesWritten                  137792                       # Total number of bytes written to DRAM
system.mem_ctrls.bytesReadSys                  179264                       # Total read bytes from the system interface side
system.mem_ctrls.bytesWrittenSys               137984                       # Total written bytes from the system interface side
system.mem_ctrls.avgRdBW                         7.89                       # Average DRAM read bandwidth in MiByte/s
system.mem_ctrls.avgWrBW                         6.09                       # Average achieved write bandwidth in MiByte/s
system.mem_ctrls.avgRdBWSys                      7.92                       # Average system read bandwidth in MiByte/s
system.mem_ctrls.avgWrBWSys                      6.10                       # Average system write bandwidth in MiByte/s
system.mem_ctrls.peakBW                      12800.00                       # Theoretical peak bandwidth in MiByte/s
system.mem_ctrls.busUtil                         0.11                       # Data bus utilization in percentage
system.mem_ctrls.busUtilRead                     0.06                       # Data bus utilization in percentage for reads
system.mem_ctrls.busUtilWrite                    0.05                       # Data bus utilization in percentage for writes
system.mem_ctrls.totGap                   22633663974                       # Total gap between requests
system.mem_ctrls.avgGap                    4566000.40                       # Average gap between requests
system.mem_ctrls.masterReadBytes::.ruby.dir_cntrl0       178624                       # Per-master bytes read from memory
system.mem_ctrls.masterWriteBytes::.ruby.dir_cntrl0       137792                       # Per-master bytes write to memory
system.mem_ctrls.masterReadRate::.ruby.dir_cntrl0 7891954.305340333842                       # Per-master bytes read from memory rate (Bytes/sec)
system.mem_ctrls.masterWriteRate::.ruby.dir_cntrl0 6087917.455893134698                       # Per-master bytes write to memory rate (Bytes/sec)
system.mem_ctrls.masterReadAccesses::.ruby.dir_cntrl0         2801                       # Per-master read serviced memory accesses
system.mem_ctrls.masterWriteAccesses::.ruby.dir_cntrl0         2156                       # Per-master write serviced memory accesses
system.mem_ctrls.masterReadTotalLat::.ruby.dir_cntrl0     72009028                       # Per-master read total memory access latency
system.mem_ctrls.masterWriteTotalLat::.ruby.dir_cntrl0 822676186598                       # Per-master write total memory access latency
system.mem_ctrls.masterReadAvgLat::.ruby.dir_cntrl0     25708.33                       # Per-master read average memory access latency
system.mem_ctrls.masterWriteAvgLat::.ruby.dir_cntrl0 381575225.69                       # Per-master write average memory access latency
system.mem_ctrls.pageHitRate                    61.96                       # Row buffer hit rate, read and write combined
system.mem_ctrls.rank1.actEnergy              6925800                       # Energy for activate commands per rank (pJ)
system.mem_ctrls.rank1.preEnergy              3692535                       # Energy for precharge commands per rank (pJ)
system.mem_ctrls.rank1.readEnergy            11009880                       # Energy for read commands per rank (pJ)
system.mem_ctrls.rank1.writeEnergy            6190920                       # Energy for write commands per rank (pJ)
system.mem_ctrls.rank1.refreshEnergy     1786758480.000000                       # Energy for refresh commands per rank (pJ)
system.mem_ctrls.rank1.actBackEnergy        630083700                       # Energy for active background per rank (pJ)
system.mem_ctrls.rank1.preBackEnergy       8160737760                       # Energy for precharge background per rank (pJ)
system.mem_ctrls.rank1.actPowerDownEnergy            0                       # Energy for active power-down per rank (pJ)
system.mem_ctrls.rank1.prePowerDownEnergy            0                       # Energy for precharge power-down per rank (pJ)
system.mem_ctrls.rank1.selfRefreshEnergy            0                       # Energy for self refresh per rank (pJ)
system.mem_ctrls.rank1.totalEnergy        10605399075                       # Total energy per rank (pJ)
system.mem_ctrls.rank1.averagePower        468.567073                       # Core power per rank (mW)
system.mem_ctrls.rank1.totalIdleTime                0                       # Total Idle time Per DRAM Rank
system.mem_ctrls.rank1.memoryStateTime::IDLE  21209413622                       # Time in different power states
system.mem_ctrls.rank1.memoryStateTime::REF    755820000                       # Time in different power states
system.mem_ctrls.rank1.memoryStateTime::SREF            0                       # Time in different power states
system.mem_ctrls.rank1.memoryStateTime::PRE_PDN            0                       # Time in different power states
system.mem_ctrls.rank1.memoryStateTime::ACT    668450392                       # Time in different power states
system.mem_ctrls.rank1.memoryStateTime::ACT_PDN            0                       # Time in different power states
system.mem_ctrls.rank0.actEnergy              6490260                       # Energy for activate commands per rank (pJ)
system.mem_ctrls.rank0.preEnergy              3457245                       # Energy for precharge commands per rank (pJ)
system.mem_ctrls.rank0.readEnergy             8917860                       # Energy for read commands per rank (pJ)
system.mem_ctrls.rank0.writeEnergy            5047740                       # Energy for write commands per rank (pJ)
system.mem_ctrls.rank0.refreshEnergy     1786758480.000000                       # Energy for refresh commands per rank (pJ)
system.mem_ctrls.rank0.actBackEnergy        630183450                       # Energy for active background per rank (pJ)
system.mem_ctrls.rank0.preBackEnergy       8160653760                       # Energy for precharge background per rank (pJ)
system.mem_ctrls.rank0.actPowerDownEnergy            0                       # Energy for active power-down per rank (pJ)
system.mem_ctrls.rank0.prePowerDownEnergy            0                       # Energy for precharge power-down per rank (pJ)
system.mem_ctrls.rank0.selfRefreshEnergy            0                       # Energy for self refresh per rank (pJ)
system.mem_ctrls.rank0.totalEnergy        10601508795                       # Total energy per rank (pJ)
system.mem_ctrls.rank0.averagePower        468.395193                       # Core power per rank (mW)
system.mem_ctrls.rank0.totalIdleTime                0                       # Total Idle time Per DRAM Rank
system.mem_ctrls.rank0.memoryStateTime::IDLE  21209234074                       # Time in different power states
system.mem_ctrls.rank0.memoryStateTime::REF    755820000                       # Time in different power states
system.mem_ctrls.rank0.memoryStateTime::SREF            0                       # Time in different power states
system.mem_ctrls.rank0.memoryStateTime::PRE_PDN            0                       # Time in different power states
system.mem_ctrls.rank0.memoryStateTime::ACT    668629940                       # Time in different power states
system.mem_ctrls.rank0.memoryStateTime::ACT_PDN            0                       # Time in different power states
system.mem_ctrls.power_state.pwrStateResidencyTicks::UNDEFINED  22633684014                       # Cumulative time (in ticks) in various power states
system.iobus.trans_dist::ReadReq                  340                       # Transaction distribution
system.iobus.trans_dist::ReadResp                 340                       # Transaction distribution
system.iobus.trans_dist::WriteReq                 229                       # Transaction distribution
system.iobus.trans_dist::WriteResp                229                       # Transaction distribution
system.iobus.pkt_count_system.pc.south_bridge.io_apic.int_master::system.ruby.l1_cntrl0.sequencer.pio-slave-port           38                       # Packet count per connected master and slave (bytes)
system.iobus.pkt_count_system.pc.south_bridge.io_apic.int_master::total           38                       # Packet count per connected master and slave (bytes)
system.iobus.pkt_count_system.ruby.l1_cntrl0.sequencer.mem-master-port::system.pc.south_bridge.ide.pio          138                       # Packet count per connected master and slave (bytes)
system.iobus.pkt_count_system.ruby.l1_cntrl0.sequencer.mem-master-port::system.pc.south_bridge.io_apic.pio          112                       # Packet count per connected master and slave (bytes)
system.iobus.pkt_count_system.ruby.l1_cntrl0.sequencer.mem-master-port::system.pc.com_1.pio          800                       # Packet count per connected master and slave (bytes)
system.iobus.pkt_count_system.ruby.l1_cntrl0.sequencer.mem-master-port::system.ruby.l1_cntrl0.sequencer.pio-slave-port           50                       # Packet count per connected master and slave (bytes)
system.iobus.pkt_count_system.ruby.l1_cntrl0.sequencer.mem-master-port::total         1100                       # Packet count per connected master and slave (bytes)
system.iobus.pkt_count::total                    1138                       # Packet count per connected master and slave (bytes)
system.iobus.pkt_size_system.pc.south_bridge.io_apic.int_master::system.ruby.l1_cntrl0.sequencer.pio-slave-port           76                       # Cumulative packet size per connected master and slave (bytes)
system.iobus.pkt_size_system.pc.south_bridge.io_apic.int_master::total           76                       # Cumulative packet size per connected master and slave (bytes)
system.iobus.pkt_size_system.ruby.l1_cntrl0.sequencer.mem-master-port::system.pc.south_bridge.ide.pio           78                       # Cumulative packet size per connected master and slave (bytes)
system.iobus.pkt_size_system.ruby.l1_cntrl0.sequencer.mem-master-port::system.pc.south_bridge.io_apic.pio          224                       # Cumulative packet size per connected master and slave (bytes)
system.iobus.pkt_size_system.ruby.l1_cntrl0.sequencer.mem-master-port::system.pc.com_1.pio          400                       # Cumulative packet size per connected master and slave (bytes)
system.iobus.pkt_size_system.ruby.l1_cntrl0.sequencer.mem-master-port::system.ruby.l1_cntrl0.sequencer.pio-slave-port          100                       # Cumulative packet size per connected master and slave (bytes)
system.iobus.pkt_size_system.ruby.l1_cntrl0.sequencer.mem-master-port::total          802                       # Cumulative packet size per connected master and slave (bytes)
system.iobus.pkt_size::total                      878                       # Cumulative packet size per connected master and slave (bytes)
system.iobus.reqLayer2.occupancy               159871                       # Layer occupancy (ticks)
system.iobus.reqLayer2.utilization                0.0                       # Layer utilization (%)
system.iobus.reqLayer8.occupancy               122616                       # Layer occupancy (ticks)
system.iobus.reqLayer8.utilization                0.0                       # Layer utilization (%)
system.iobus.power_state.pwrStateResidencyTicks::UNDEFINED  22633684014                       # Cumulative time (in ticks) in various power states
system.iobus.reqLayer17.occupancy              114562                       # Layer occupancy (ticks)
system.iobus.reqLayer17.utilization               0.0                       # Layer utilization (%)
system.iobus.reqLayer12.occupancy              774914                       # Layer occupancy (ticks)
system.iobus.reqLayer12.utilization               0.0                       # Layer utilization (%)
system.iobus.respLayer0.occupancy               26846                       # Layer occupancy (ticks)
system.iobus.respLayer0.utilization               0.0                       # Layer utilization (%)
system.iobus.respLayer3.occupancy              953010                       # Layer occupancy (ticks)
system.iobus.respLayer3.utilization               0.0                       # Layer utilization (%)
system.cpu_clk_domain.clock                       501                       # Clock period in ticks
system.cpu.dtb.walker.power_state.pwrStateResidencyTicks::UNDEFINED 5694550077921                       # Cumulative time (in ticks) in various power states
system.cpu.interrupts.clk_domain.clock           8016                       # Clock period in ticks
system.cpu.itb.walker.power_state.pwrStateResidencyTicks::UNDEFINED 5694550077921                       # Cumulative time (in ticks) in various power states
system.cpu.power_state.numTransitions           13231                       # Number of power state transitions
system.cpu.power_state.ticksClkGated::samples         6545                       # Distribution of time spent in the clock gated state
system.cpu.power_state.ticksClkGated::mean 671735796.227349                       # Distribution of time spent in the clock gated state
system.cpu.power_state.ticksClkGated::stdev 1483113036.833429                       # Distribution of time spent in the clock gated state
system.cpu.power_state.ticksClkGated::1001-5e+10         6545    100.00%    100.00% # Distribution of time spent in the clock gated state
system.cpu.power_state.ticksClkGated::min_value       278055                       # Distribution of time spent in the clock gated state
system.cpu.power_state.ticksClkGated::max_value   3996030108                       # Distribution of time spent in the clock gated state
system.cpu.power_state.ticksClkGated::total         6545                       # Distribution of time spent in the clock gated state
system.cpu.power_state.pwrStateResidencyTicks::ON 1298039291613                       # Cumulative time (in ticks) in various power states
system.cpu.power_state.pwrStateResidencyTicks::CLK_GATED 4396510786308                       # Cumulative time (in ticks) in various power states

---------- End Simulation Statistics   ----------
