
---------- Begin Simulation Statistics ----------
final_tick                               4821906970812                       # Number of ticks from beginning of simulation (restored from checkpoints and never reset)
host_inst_rate                                 143173                       # Simulator instruction rate (inst/s)
host_mem_usage                                1188028                       # Number of bytes of host memory used
host_op_rate                                   363846                       # Simulator op (including micro ops) rate (op/s)
host_seconds                                  9562.79                       # Real time elapsed on the host
host_tick_rate                              504236501                       # Simulator tick rate (ticks/s)
sim_freq                                 1000000000000                       # Frequency of simulated ticks
sim_insts                                  1369135157                       # Number of instructions simulated
sim_ops                                    3479378260                       # Number of ops (including micro ops) simulated
sim_seconds                                  4.821907                       # Number of seconds simulated
sim_ticks                                4821906970812                       # Number of ticks simulated
system.cpu.branchPred.BTBCorrect                    0                       # Number of correct BTB predictions (this stat may not work properly.
system.cpu.branchPred.BTBHitPct                   nan                       # BTB Hit Percentage
system.cpu.branchPred.BTBHits                       0                       # Number of BTB hits
system.cpu.branchPred.BTBLookups                    0                       # Number of BTB lookups
system.cpu.branchPred.RASInCorrect              19980                       # Number of incorrect RAS predictions.
system.cpu.branchPred.condIncorrect           3996342                       # Number of conditional branches incorrect
system.cpu.branchPred.condPredicted         464564028                       # Number of conditional branches predicted
system.cpu.branchPred.indirectHits          416492416                       # Number of indirect target hits.
system.cpu.branchPred.indirectLookups       427224562                       # Number of indirect predictor lookups.
system.cpu.branchPred.indirectMisses         10732146                       # Number of indirect misses.
system.cpu.branchPred.lookups               486100792                       # Number of BP lookups
system.cpu.branchPred.usedRAS                10315815                       # Number of times the RAS was used to get a target.
system.cpu.branchPredindirectMispredicted      2671761                       # Number of mispredicted indirect branches.
system.cpu.cc_regfile_reads                2253051512                       # number of cc regfile reads
system.cpu.cc_regfile_writes                956241155                       # number of cc regfile writes
system.cpu.commit.amos                              0                       # Number of atomic instructions committed
system.cpu.commit.branchMispredicts           4000123                       # The number of times a branch was mispredicted
system.cpu.commit.branches                  453253532                       # Number of branches committed
system.cpu.commit.bw_lim_events             343261926                       # number cycles where commit BW limit reached
system.cpu.commit.commitNonSpecStalls         2205466                       # The number of times commit has been forced to stall to communicate backwards
system.cpu.commit.commitSquashedInsts       151711972                       # The number of squashed insts skipped by commit
system.cpu.commit.committedInsts           1369135157                       # Number of instructions committed
system.cpu.commit.committedOps             3479378260                       # Number of ops (including micro ops) committed
system.cpu.commit.committed_per_cycle::samples    748852023                       # Number of insts commited each cycle
system.cpu.commit.committed_per_cycle::mean     4.646283                       # Number of insts commited each cycle
system.cpu.commit.committed_per_cycle::stdev     3.416177                       # Number of insts commited each cycle
system.cpu.commit.committed_per_cycle::underflows            0      0.00%      0.00% # Number of insts commited each cycle
system.cpu.commit.committed_per_cycle::0    187506844     25.04%     25.04% # Number of insts commited each cycle
system.cpu.commit.committed_per_cycle::1     35887212      4.79%     29.83% # Number of insts commited each cycle
system.cpu.commit.committed_per_cycle::2      9985383      1.33%     31.16% # Number of insts commited each cycle
system.cpu.commit.committed_per_cycle::3     92825048     12.40%     43.56% # Number of insts commited each cycle
system.cpu.commit.committed_per_cycle::4      6689627      0.89%     44.45% # Number of insts commited each cycle
system.cpu.commit.committed_per_cycle::5     66585545      8.89%     53.35% # Number of insts commited each cycle
system.cpu.commit.committed_per_cycle::6      3509569      0.47%     53.81% # Number of insts commited each cycle
system.cpu.commit.committed_per_cycle::7      2600869      0.35%     54.16% # Number of insts commited each cycle
system.cpu.commit.committed_per_cycle::8    343261926     45.84%    100.00% # Number of insts commited each cycle
system.cpu.commit.committed_per_cycle::overflows            0      0.00%    100.00% # Number of insts commited each cycle
system.cpu.commit.committed_per_cycle::min_value            0                       # Number of insts commited each cycle
system.cpu.commit.committed_per_cycle::max_value            8                       # Number of insts commited each cycle
system.cpu.commit.committed_per_cycle::total    748852023                       # Number of insts commited each cycle
system.cpu.commit.fp_insts                      41305                       # Number of committed floating point instructions.
system.cpu.commit.function_calls              6830241                       # Number of function calls committed.
system.cpu.commit.int_insts                3093419651                       # Number of committed integer instructions.
system.cpu.commit.loads                     426858152                       # Number of loads committed
system.cpu.commit.membars                     1213142                       # Number of memory barriers committed
system.cpu.commit.op_class_0::No_OpClass     17699339      0.51%      0.51% # Class of committed instruction
system.cpu.commit.op_class_0::IntAlu       3005050800     86.37%     86.88% # Class of committed instruction
system.cpu.commit.op_class_0::IntMult          326690      0.01%     86.89% # Class of committed instruction
system.cpu.commit.op_class_0::IntDiv            31565      0.00%     86.89% # Class of committed instruction
system.cpu.commit.op_class_0::FloatAdd            759      0.00%     86.89% # Class of committed instruction
system.cpu.commit.op_class_0::FloatCmp              0      0.00%     86.89% # Class of committed instruction
system.cpu.commit.op_class_0::FloatCvt             16      0.00%     86.89% # Class of committed instruction
system.cpu.commit.op_class_0::FloatMult             0      0.00%     86.89% # Class of committed instruction
system.cpu.commit.op_class_0::FloatMultAcc            0      0.00%     86.89% # Class of committed instruction
system.cpu.commit.op_class_0::FloatDiv              0      0.00%     86.89% # Class of committed instruction
system.cpu.commit.op_class_0::FloatMisc             0      0.00%     86.89% # Class of committed instruction
system.cpu.commit.op_class_0::FloatSqrt             0      0.00%     86.89% # Class of committed instruction
system.cpu.commit.op_class_0::SimdAdd            1308      0.00%     86.89% # Class of committed instruction
system.cpu.commit.op_class_0::SimdAddAcc            0      0.00%     86.89% # Class of committed instruction
system.cpu.commit.op_class_0::SimdAlu            4052      0.00%     86.89% # Class of committed instruction
system.cpu.commit.op_class_0::SimdCmp               0      0.00%     86.89% # Class of committed instruction
system.cpu.commit.op_class_0::SimdCvt            9586      0.00%     86.89% # Class of committed instruction
system.cpu.commit.op_class_0::SimdMisc          13059      0.00%     86.89% # Class of committed instruction
system.cpu.commit.op_class_0::SimdMult              0      0.00%     86.89% # Class of committed instruction
system.cpu.commit.op_class_0::SimdMultAcc            0      0.00%     86.89% # Class of committed instruction
system.cpu.commit.op_class_0::SimdShift           616      0.00%     86.89% # Class of committed instruction
system.cpu.commit.op_class_0::SimdShiftAcc            0      0.00%     86.89% # Class of committed instruction
system.cpu.commit.op_class_0::SimdDiv               0      0.00%     86.89% # Class of committed instruction
system.cpu.commit.op_class_0::SimdSqrt              0      0.00%     86.89% # Class of committed instruction
system.cpu.commit.op_class_0::SimdFloatAdd            0      0.00%     86.89% # Class of committed instruction
system.cpu.commit.op_class_0::SimdFloatAlu            0      0.00%     86.89% # Class of committed instruction
system.cpu.commit.op_class_0::SimdFloatCmp            0      0.00%     86.89% # Class of committed instruction
system.cpu.commit.op_class_0::SimdFloatCvt            0      0.00%     86.89% # Class of committed instruction
system.cpu.commit.op_class_0::SimdFloatDiv            0      0.00%     86.89% # Class of committed instruction
system.cpu.commit.op_class_0::SimdFloatMisc            0      0.00%     86.89% # Class of committed instruction
system.cpu.commit.op_class_0::SimdFloatMult            0      0.00%     86.89% # Class of committed instruction
system.cpu.commit.op_class_0::SimdFloatMultAcc            0      0.00%     86.89% # Class of committed instruction
system.cpu.commit.op_class_0::SimdFloatSqrt            0      0.00%     86.89% # Class of committed instruction
system.cpu.commit.op_class_0::SimdReduceAdd            0      0.00%     86.89% # Class of committed instruction
system.cpu.commit.op_class_0::SimdReduceAlu            0      0.00%     86.89% # Class of committed instruction
system.cpu.commit.op_class_0::SimdReduceCmp            0      0.00%     86.89% # Class of committed instruction
system.cpu.commit.op_class_0::SimdFloatReduceAdd            0      0.00%     86.89% # Class of committed instruction
system.cpu.commit.op_class_0::SimdFloatReduceCmp            0      0.00%     86.89% # Class of committed instruction
system.cpu.commit.op_class_0::SimdAes               0      0.00%     86.89% # Class of committed instruction
system.cpu.commit.op_class_0::SimdAesMix            0      0.00%     86.89% # Class of committed instruction
system.cpu.commit.op_class_0::SimdSha1Hash            0      0.00%     86.89% # Class of committed instruction
system.cpu.commit.op_class_0::SimdSha1Hash2            0      0.00%     86.89% # Class of committed instruction
system.cpu.commit.op_class_0::SimdSha256Hash            0      0.00%     86.89% # Class of committed instruction
system.cpu.commit.op_class_0::SimdSha256Hash2            0      0.00%     86.89% # Class of committed instruction
system.cpu.commit.op_class_0::SimdShaSigma2            0      0.00%     86.89% # Class of committed instruction
system.cpu.commit.op_class_0::SimdShaSigma3            0      0.00%     86.89% # Class of committed instruction
system.cpu.commit.op_class_0::SimdPredAlu            0      0.00%     86.89% # Class of committed instruction
system.cpu.commit.op_class_0::MemRead       426849608     12.27%     99.16% # Class of committed instruction
system.cpu.commit.op_class_0::MemWrite       29383346      0.84%    100.00% # Class of committed instruction
system.cpu.commit.op_class_0::FloatMemRead         7370      0.00%    100.00% # Class of committed instruction
system.cpu.commit.op_class_0::FloatMemWrite          146      0.00%    100.00% # Class of committed instruction
system.cpu.commit.op_class_0::IprAccess             0      0.00%    100.00% # Class of committed instruction
system.cpu.commit.op_class_0::InstPrefetch            0      0.00%    100.00% # Class of committed instruction
system.cpu.commit.op_class_0::total        3479378260                       # Class of committed instruction
system.cpu.commit.refs                      456241644                       # Number of memory references committed
system.cpu.commit.swp_count                         0                       # Number of s/w prefetches committed
system.cpu.commit.vec_insts                         0                       # Number of committed Vector instructions.
system.cpu.committedInsts                  1369135157                       # Number of Instructions Simulated
system.cpu.committedOps                    3479378260                       # Number of Ops (including micro ops) Simulated
system.cpu.cpi                               0.564301                       # CPI: Cycles Per Instruction
system.cpu.cpi_total                         0.564301                       # CPI: Total CPI of All Threads
system.cpu.decode.BlockedCycles             223569434                       # Number of cycles decode is blocked
system.cpu.decode.DecodedInsts             3680816328                       # Number of instructions handled by decode
system.cpu.decode.IdleCycles                 69822301                       # Number of cycles decode is idle
system.cpu.decode.RunCycles                 404872841                       # Number of cycles decode is running
system.cpu.decode.SquashCycles                4171496                       # Number of cycles decode is squashing
system.cpu.decode.UnblockCycles              68118755                       # Number of cycles decode is unblocking
system.cpu.dtb.rdAccesses                   436133843                       # TLB accesses on read requests
system.cpu.dtb.rdMisses                        330832                       # TLB misses on read requests
system.cpu.dtb.wrAccesses                    32530439                       # TLB accesses on write requests
system.cpu.dtb.wrMisses                         70600                       # TLB misses on write requests
system.cpu.fetch.Branches                   486100792                       # Number of branches that fetch encountered
system.cpu.fetch.CacheLines                  56938171                       # Number of cache lines fetched
system.cpu.fetch.Cycles                     694775260                       # Number of cycles fetch has run and was not squashing or blocked
system.cpu.fetch.IcacheSquashes               1534273                       # Number of outstanding Icache misses that were squashed
system.cpu.fetch.IcacheWaitRetryStallCycles         2672                       # Number of stall cycles due to full MSHR
system.cpu.fetch.Insts                     1497789291                       # Number of instructions fetch has processed
system.cpu.fetch.ItlbSquashes                    5224                       # Number of outstanding ITLB misses that were squashed
system.cpu.fetch.MiscStallCycles                84731                       # Number of cycles fetch has spent waiting on interrupts, or bad addresses, or out of MSHRs
system.cpu.fetch.PendingQuiesceStallCycles      1443449                       # Number of stall cycles due to pending quiesce instructions
system.cpu.fetch.PendingTrapStallCycles         71975                       # Number of stall cycles due to pending traps
system.cpu.fetch.SquashCycles                 8342992                       # Number of cycles fetch has spent squashing
system.cpu.fetch.TlbCycles                      42589                       # Number of cycles fetch has spent waiting for tlb
system.cpu.fetch.branchRate                  0.629171                       # Number of branch fetches per cycle
system.cpu.fetch.icacheStallCycles           69962655                       # Number of cycles fetch is stalled on an Icache miss
system.cpu.fetch.predictedBranches          426808231                       # Number of branches that fetch has predicted taken
system.cpu.fetch.rate                        1.938623                       # Number of inst fetches per cycle
system.cpu.fetch.rateDist::samples          770554827                       # Number of instructions fetched each cycle (Total)
system.cpu.fetch.rateDist::mean              4.829587                       # Number of instructions fetched each cycle (Total)
system.cpu.fetch.rateDist::stdev             3.777149                       # Number of instructions fetched each cycle (Total)
system.cpu.fetch.rateDist::underflows               0      0.00%      0.00% # Number of instructions fetched each cycle (Total)
system.cpu.fetch.rateDist::0                277528908     36.02%     36.02% # Number of instructions fetched each cycle (Total)
system.cpu.fetch.rateDist::1                  6005267      0.78%     36.80% # Number of instructions fetched each cycle (Total)
system.cpu.fetch.rateDist::2                  5047989      0.66%     37.45% # Number of instructions fetched each cycle (Total)
system.cpu.fetch.rateDist::3                  8741089      1.13%     38.59% # Number of instructions fetched each cycle (Total)
system.cpu.fetch.rateDist::4                  5350589      0.69%     39.28% # Number of instructions fetched each cycle (Total)
system.cpu.fetch.rateDist::5                 12394885      1.61%     40.89% # Number of instructions fetched each cycle (Total)
system.cpu.fetch.rateDist::6                 18493408      2.40%     43.29% # Number of instructions fetched each cycle (Total)
system.cpu.fetch.rateDist::7                 11141964      1.45%     44.73% # Number of instructions fetched each cycle (Total)
system.cpu.fetch.rateDist::8                425850728     55.27%    100.00% # Number of instructions fetched each cycle (Total)
system.cpu.fetch.rateDist::overflows                0      0.00%    100.00% # Number of instructions fetched each cycle (Total)
system.cpu.fetch.rateDist::min_value                0                       # Number of instructions fetched each cycle (Total)
system.cpu.fetch.rateDist::max_value                8                       # Number of instructions fetched each cycle (Total)
system.cpu.fetch.rateDist::total            770554827                       # Number of instructions fetched each cycle (Total)
system.cpu.fp_regfile_reads                    139496                       # number of floating regfile reads
system.cpu.fp_regfile_writes                    50720                       # number of floating regfile writes
system.cpu.idleCycles                         2049866                       # Total number of cycles that the CPU has spent unscheduled due to idling
system.cpu.iew.branchMispredicts              4995198                       # Number of branch mispredicts detected at execute
system.cpu.iew.exec_branches                460928437                       # Number of branches executed
system.cpu.iew.exec_nop                             0                       # number of nop insts executed
system.cpu.iew.exec_rate                     4.620152                       # Inst execution rate
system.cpu.iew.exec_refs                    468461258                       # number of memory reference insts executed
system.cpu.iew.exec_stores                   32480715                       # Number of stores executed
system.cpu.iew.exec_swp                             0                       # number of swp insts executed
system.cpu.iew.iewBlockCycles                62555295                       # Number of cycles IEW is blocking
system.cpu.iew.iewDispLoadInsts             445764730                       # Number of dispatched load instructions
system.cpu.iew.iewDispNonSpecInsts            1405016                       # Number of dispatched non-speculative instructions
system.cpu.iew.iewDispSquashedInsts            725805                       # Number of squashed instructions skipped by dispatch
system.cpu.iew.iewDispStoreInsts             37110035                       # Number of dispatched store instructions
system.cpu.iew.iewDispatchedInsts          3631188638                       # Number of instructions dispatched to IQ
system.cpu.iew.iewExecLoadInsts             435980543                       # Number of load instructions executed
system.cpu.iew.iewExecSquashedInsts           8918345                       # Number of squashed instructions skipped in execute
system.cpu.iew.iewExecutedInsts            3569550978                       # Number of executed instructions
system.cpu.iew.iewIQFullEvents                1238838                       # Number of times the IQ has become full, causing a stall
system.cpu.iew.iewIdleCycles                        0                       # Number of cycles IEW is idle
system.cpu.iew.iewLSQFullEvents               2180364                       # Number of times the LSQ has become full, causing a stall
system.cpu.iew.iewSquashCycles                4171496                       # Number of cycles IEW is squashing
system.cpu.iew.iewUnblockCycles               4588945                       # Number of cycles IEW is unblocking
system.cpu.iew.lsq.thread0.blockedLoads             0                       # Number of blocked loads due to partial load-store forwarding
system.cpu.iew.lsq.thread0.cacheBlocked           886                       # Number of times an access to memory failed due to the cache being blocked
system.cpu.iew.lsq.thread0.forwLoads          8154263                       # Number of loads that had data forwarded from stores
system.cpu.iew.lsq.thread0.ignoredResponses        58883                       # Number of memory responses ignored because the instruction is squashed
system.cpu.iew.lsq.thread0.invAddrLoads             0                       # Number of loads ignored due to an invalid address
system.cpu.iew.lsq.thread0.invAddrSwpfs             0                       # Number of software prefetches ignored due to an invalid address
system.cpu.iew.lsq.thread0.memOrderViolation       158799                       # Number of memory ordering violations
system.cpu.iew.lsq.thread0.rescheduledLoads        22857                       # Number of loads that were rescheduled
system.cpu.iew.lsq.thread0.squashedLoads     18906577                       # Number of loads squashed
system.cpu.iew.lsq.thread0.squashedStores      7726543                       # Number of stores squashed
system.cpu.iew.memOrderViolationEvents         158799                       # Number of memory order violations
system.cpu.iew.predictedNotTakenIncorrect      4667452                       # Number of branches that were predicted not taken incorrectly
system.cpu.iew.predictedTakenIncorrect         327746                       # Number of branches that were predicted taken incorrectly
system.cpu.iew.wb_consumers                3304405759                       # num instructions consuming a value
system.cpu.iew.wb_count                    3566995278                       # cumulative count of insts written-back
system.cpu.iew.wb_fanout                     0.797292                       # average fanout of values written-back
system.cpu.iew.wb_producers                2634575441                       # num instructions producing a value
system.cpu.iew.wb_rate                       4.616844                       # insts written-back per cycle
system.cpu.iew.wb_sent                     3567993713                       # cumulative count of insts sent to commit
system.cpu.int_regfile_reads               3054004345                       # number of integer regfile reads
system.cpu.int_regfile_writes              2698129383                       # number of integer regfile writes
system.cpu.ipc                               1.772103                       # IPC: Instructions Per Cycle
system.cpu.ipc_total                         1.772103                       # IPC: Total IPC of All Threads
system.cpu.iq.FU_type_0::No_OpClass          20304822      0.57%      0.57% # Type of FU issued
system.cpu.iq.FU_type_0::IntAlu            3086433152     86.24%     86.81% # Type of FU issued
system.cpu.iq.FU_type_0::IntMult               555133      0.02%     86.82% # Type of FU issued
system.cpu.iq.FU_type_0::IntDiv                 32557      0.00%     86.82% # Type of FU issued
system.cpu.iq.FU_type_0::FloatAdd                2303      0.00%     86.82% # Type of FU issued
system.cpu.iq.FU_type_0::FloatCmp                   0      0.00%     86.82% # Type of FU issued
system.cpu.iq.FU_type_0::FloatCvt               42774      0.00%     86.83% # Type of FU issued
system.cpu.iq.FU_type_0::FloatMult                  0      0.00%     86.83% # Type of FU issued
system.cpu.iq.FU_type_0::FloatMultAcc               0      0.00%     86.83% # Type of FU issued
system.cpu.iq.FU_type_0::FloatDiv                   0      0.00%     86.83% # Type of FU issued
system.cpu.iq.FU_type_0::FloatMisc                  0      0.00%     86.83% # Type of FU issued
system.cpu.iq.FU_type_0::FloatSqrt                  0      0.00%     86.83% # Type of FU issued
system.cpu.iq.FU_type_0::SimdAdd                 2181      0.00%     86.83% # Type of FU issued
system.cpu.iq.FU_type_0::SimdAddAcc                 0      0.00%     86.83% # Type of FU issued
system.cpu.iq.FU_type_0::SimdAlu                 7452      0.00%     86.83% # Type of FU issued
system.cpu.iq.FU_type_0::SimdCmp                    0      0.00%     86.83% # Type of FU issued
system.cpu.iq.FU_type_0::SimdCvt                14150      0.00%     86.83% # Type of FU issued
system.cpu.iq.FU_type_0::SimdMisc               15226      0.00%     86.83% # Type of FU issued
system.cpu.iq.FU_type_0::SimdMult                   0      0.00%     86.83% # Type of FU issued
system.cpu.iq.FU_type_0::SimdMultAcc                0      0.00%     86.83% # Type of FU issued
system.cpu.iq.FU_type_0::SimdShift               1530      0.00%     86.83% # Type of FU issued
system.cpu.iq.FU_type_0::SimdShiftAcc               0      0.00%     86.83% # Type of FU issued
system.cpu.iq.FU_type_0::SimdDiv                    0      0.00%     86.83% # Type of FU issued
system.cpu.iq.FU_type_0::SimdSqrt                   0      0.00%     86.83% # Type of FU issued
system.cpu.iq.FU_type_0::SimdFloatAdd               0      0.00%     86.83% # Type of FU issued
system.cpu.iq.FU_type_0::SimdFloatAlu               0      0.00%     86.83% # Type of FU issued
system.cpu.iq.FU_type_0::SimdFloatCmp               0      0.00%     86.83% # Type of FU issued
system.cpu.iq.FU_type_0::SimdFloatCvt               0      0.00%     86.83% # Type of FU issued
system.cpu.iq.FU_type_0::SimdFloatDiv               0      0.00%     86.83% # Type of FU issued
system.cpu.iq.FU_type_0::SimdFloatMisc              0      0.00%     86.83% # Type of FU issued
system.cpu.iq.FU_type_0::SimdFloatMult              0      0.00%     86.83% # Type of FU issued
system.cpu.iq.FU_type_0::SimdFloatMultAcc            0      0.00%     86.83% # Type of FU issued
system.cpu.iq.FU_type_0::SimdFloatSqrt              0      0.00%     86.83% # Type of FU issued
system.cpu.iq.FU_type_0::SimdReduceAdd              0      0.00%     86.83% # Type of FU issued
system.cpu.iq.FU_type_0::SimdReduceAlu              0      0.00%     86.83% # Type of FU issued
system.cpu.iq.FU_type_0::SimdReduceCmp              0      0.00%     86.83% # Type of FU issued
system.cpu.iq.FU_type_0::SimdFloatReduceAdd            0      0.00%     86.83% # Type of FU issued
system.cpu.iq.FU_type_0::SimdFloatReduceCmp            0      0.00%     86.83% # Type of FU issued
system.cpu.iq.FU_type_0::SimdAes                    0      0.00%     86.83% # Type of FU issued
system.cpu.iq.FU_type_0::SimdAesMix                 0      0.00%     86.83% # Type of FU issued
system.cpu.iq.FU_type_0::SimdSha1Hash               0      0.00%     86.83% # Type of FU issued
system.cpu.iq.FU_type_0::SimdSha1Hash2              0      0.00%     86.83% # Type of FU issued
system.cpu.iq.FU_type_0::SimdSha256Hash             0      0.00%     86.83% # Type of FU issued
system.cpu.iq.FU_type_0::SimdSha256Hash2            0      0.00%     86.83% # Type of FU issued
system.cpu.iq.FU_type_0::SimdShaSigma2              0      0.00%     86.83% # Type of FU issued
system.cpu.iq.FU_type_0::SimdShaSigma3              0      0.00%     86.83% # Type of FU issued
system.cpu.iq.FU_type_0::SimdPredAlu                0      0.00%     86.83% # Type of FU issued
system.cpu.iq.FU_type_0::MemRead            438051868     12.24%     99.07% # Type of FU issued
system.cpu.iq.FU_type_0::MemWrite            33379252      0.93%    100.00% # Type of FU issued
system.cpu.iq.FU_type_0::FloatMemRead           16731      0.00%    100.00% # Type of FU issued
system.cpu.iq.FU_type_0::FloatMemWrite            672      0.00%    100.00% # Type of FU issued
system.cpu.iq.FU_type_0::IprAccess                  0      0.00%    100.00% # Type of FU issued
system.cpu.iq.FU_type_0::InstPrefetch               0      0.00%    100.00% # Type of FU issued
system.cpu.iq.FU_type_0::total             3578859803                       # Type of FU issued
system.cpu.iq.fp_alu_accesses                  111024                       # Number of floating point alu accesses
system.cpu.iq.fp_inst_queue_reads              229809                       # Number of floating instruction queue reads
system.cpu.iq.fp_inst_queue_wakeup_accesses       103205                       # Number of floating instruction queue wakeup accesses
system.cpu.iq.fp_inst_queue_writes             242211                       # Number of floating instruction queue writes
system.cpu.iq.fu_busy_cnt                   439980760                       # FU busy when requested
system.cpu.iq.fu_busy_rate                   0.122939                       # FU busy rate (busy events/executed inst)
system.cpu.iq.fu_full::No_OpClass                   0      0.00%      0.00% # attempts to use FU when none available
system.cpu.iq.fu_full::IntAlu               438957582     99.77%     99.77% # attempts to use FU when none available
system.cpu.iq.fu_full::IntMult                      0      0.00%     99.77% # attempts to use FU when none available
system.cpu.iq.fu_full::IntDiv                       1      0.00%     99.77% # attempts to use FU when none available
system.cpu.iq.fu_full::FloatAdd                     0      0.00%     99.77% # attempts to use FU when none available
system.cpu.iq.fu_full::FloatCmp                     0      0.00%     99.77% # attempts to use FU when none available
system.cpu.iq.fu_full::FloatCvt                    15      0.00%     99.77% # attempts to use FU when none available
system.cpu.iq.fu_full::FloatMult                    0      0.00%     99.77% # attempts to use FU when none available
system.cpu.iq.fu_full::FloatMultAcc                 0      0.00%     99.77% # attempts to use FU when none available
system.cpu.iq.fu_full::FloatDiv                     0      0.00%     99.77% # attempts to use FU when none available
system.cpu.iq.fu_full::FloatMisc                    0      0.00%     99.77% # attempts to use FU when none available
system.cpu.iq.fu_full::FloatSqrt                    0      0.00%     99.77% # attempts to use FU when none available
system.cpu.iq.fu_full::SimdAdd                      0      0.00%     99.77% # attempts to use FU when none available
system.cpu.iq.fu_full::SimdAddAcc                   0      0.00%     99.77% # attempts to use FU when none available
system.cpu.iq.fu_full::SimdAlu                     10      0.00%     99.77% # attempts to use FU when none available
system.cpu.iq.fu_full::SimdCmp                      0      0.00%     99.77% # attempts to use FU when none available
system.cpu.iq.fu_full::SimdCvt                     80      0.00%     99.77% # attempts to use FU when none available
system.cpu.iq.fu_full::SimdMisc                     0      0.00%     99.77% # attempts to use FU when none available
system.cpu.iq.fu_full::SimdMult                     0      0.00%     99.77% # attempts to use FU when none available
system.cpu.iq.fu_full::SimdMultAcc                  0      0.00%     99.77% # attempts to use FU when none available
system.cpu.iq.fu_full::SimdShift                    8      0.00%     99.77% # attempts to use FU when none available
system.cpu.iq.fu_full::SimdShiftAcc                 0      0.00%     99.77% # attempts to use FU when none available
system.cpu.iq.fu_full::SimdDiv                      0      0.00%     99.77% # attempts to use FU when none available
system.cpu.iq.fu_full::SimdSqrt                     0      0.00%     99.77% # attempts to use FU when none available
system.cpu.iq.fu_full::SimdFloatAdd                 0      0.00%     99.77% # attempts to use FU when none available
system.cpu.iq.fu_full::SimdFloatAlu                 0      0.00%     99.77% # attempts to use FU when none available
system.cpu.iq.fu_full::SimdFloatCmp                 0      0.00%     99.77% # attempts to use FU when none available
system.cpu.iq.fu_full::SimdFloatCvt                 0      0.00%     99.77% # attempts to use FU when none available
system.cpu.iq.fu_full::SimdFloatDiv                 0      0.00%     99.77% # attempts to use FU when none available
system.cpu.iq.fu_full::SimdFloatMisc                0      0.00%     99.77% # attempts to use FU when none available
system.cpu.iq.fu_full::SimdFloatMult                0      0.00%     99.77% # attempts to use FU when none available
system.cpu.iq.fu_full::SimdFloatMultAcc             0      0.00%     99.77% # attempts to use FU when none available
system.cpu.iq.fu_full::SimdFloatSqrt                0      0.00%     99.77% # attempts to use FU when none available
system.cpu.iq.fu_full::SimdReduceAdd                0      0.00%     99.77% # attempts to use FU when none available
system.cpu.iq.fu_full::SimdReduceAlu                0      0.00%     99.77% # attempts to use FU when none available
system.cpu.iq.fu_full::SimdReduceCmp                0      0.00%     99.77% # attempts to use FU when none available
system.cpu.iq.fu_full::SimdFloatReduceAdd            0      0.00%     99.77% # attempts to use FU when none available
system.cpu.iq.fu_full::SimdFloatReduceCmp            0      0.00%     99.77% # attempts to use FU when none available
system.cpu.iq.fu_full::SimdAes                      0      0.00%     99.77% # attempts to use FU when none available
system.cpu.iq.fu_full::SimdAesMix                   0      0.00%     99.77% # attempts to use FU when none available
system.cpu.iq.fu_full::SimdSha1Hash                 0      0.00%     99.77% # attempts to use FU when none available
system.cpu.iq.fu_full::SimdSha1Hash2                0      0.00%     99.77% # attempts to use FU when none available
system.cpu.iq.fu_full::SimdSha256Hash               0      0.00%     99.77% # attempts to use FU when none available
system.cpu.iq.fu_full::SimdSha256Hash2              0      0.00%     99.77% # attempts to use FU when none available
system.cpu.iq.fu_full::SimdShaSigma2                0      0.00%     99.77% # attempts to use FU when none available
system.cpu.iq.fu_full::SimdShaSigma3                0      0.00%     99.77% # attempts to use FU when none available
system.cpu.iq.fu_full::SimdPredAlu                  0      0.00%     99.77% # attempts to use FU when none available
system.cpu.iq.fu_full::MemRead                 471898      0.11%     99.87% # attempts to use FU when none available
system.cpu.iq.fu_full::MemWrite                548586      0.12%    100.00% # attempts to use FU when none available
system.cpu.iq.fu_full::FloatMemRead                27      0.00%    100.00% # attempts to use FU when none available
system.cpu.iq.fu_full::FloatMemWrite             2553      0.00%    100.00% # attempts to use FU when none available
system.cpu.iq.fu_full::IprAccess                    0      0.00%    100.00% # attempts to use FU when none available
system.cpu.iq.fu_full::InstPrefetch                 0      0.00%    100.00% # attempts to use FU when none available
system.cpu.iq.int_alu_accesses             3998424717                       # Number of integer alu accesses
system.cpu.iq.int_inst_queue_reads         8369835918                       # Number of integer instruction queue reads
system.cpu.iq.int_inst_queue_wakeup_accesses   3566892073                       # Number of integer instruction queue wakeup accesses
system.cpu.iq.int_inst_queue_writes        3782909231                       # Number of integer instruction queue writes
system.cpu.iq.iqInstsAdded                 3628010449                       # Number of instructions added to the IQ (excludes non-spec)
system.cpu.iq.iqInstsIssued                3578859803                       # Number of instructions issued
system.cpu.iq.iqNonSpecInstsAdded             3178189                       # Number of non-speculative instructions added to the IQ
system.cpu.iq.iqSquashedInstsExamined       151810374                       # Number of squashed instructions iterated over during squash; mainly for profiling
system.cpu.iq.iqSquashedInstsIssued           1810535                       # Number of squashed instructions issued
system.cpu.iq.iqSquashedNonSpecRemoved         972723                       # Number of squashed non-spec instructions that were removed
system.cpu.iq.iqSquashedOperandsExamined    220655220                       # Number of squashed operands that are examined and possibly removed from graph
system.cpu.iq.issued_per_cycle::samples     770554827                       # Number of insts issued each cycle
system.cpu.iq.issued_per_cycle::mean         4.644523                       # Number of insts issued each cycle
system.cpu.iq.issued_per_cycle::stdev        2.907148                       # Number of insts issued each cycle
system.cpu.iq.issued_per_cycle::underflows            0      0.00%      0.00% # Number of insts issued each cycle
system.cpu.iq.issued_per_cycle::0           158177734     20.53%     20.53% # Number of insts issued each cycle
system.cpu.iq.issued_per_cycle::1            37132875      4.82%     25.35% # Number of insts issued each cycle
system.cpu.iq.issued_per_cycle::2            29019207      3.77%     29.11% # Number of insts issued each cycle
system.cpu.iq.issued_per_cycle::3            36199236      4.70%     33.81% # Number of insts issued each cycle
system.cpu.iq.issued_per_cycle::4            24725505      3.21%     37.02% # Number of insts issued each cycle
system.cpu.iq.issued_per_cycle::5            21577644      2.80%     39.82% # Number of insts issued each cycle
system.cpu.iq.issued_per_cycle::6            82177801     10.66%     50.48% # Number of insts issued each cycle
system.cpu.iq.issued_per_cycle::7           377124840     48.94%     99.43% # Number of insts issued each cycle
system.cpu.iq.issued_per_cycle::8             4419985      0.57%    100.00% # Number of insts issued each cycle
system.cpu.iq.issued_per_cycle::overflows            0      0.00%    100.00% # Number of insts issued each cycle
system.cpu.iq.issued_per_cycle::min_value            0                       # Number of insts issued each cycle
system.cpu.iq.issued_per_cycle::max_value            8                       # Number of insts issued each cycle
system.cpu.iq.issued_per_cycle::total       770554827                       # Number of insts issued each cycle
system.cpu.iq.rate                           4.632200                       # Inst issue rate
system.cpu.iq.vec_alu_accesses                      0                       # Number of vector alu accesses
system.cpu.iq.vec_inst_queue_reads                  0                       # Number of vector instruction queue reads
system.cpu.iq.vec_inst_queue_wakeup_accesses            0                       # Number of vector instruction queue wakeup accesses
system.cpu.iq.vec_inst_queue_writes                 0                       # Number of vector instruction queue writes
system.cpu.itb.rdAccesses                           0                       # TLB accesses on read requests
system.cpu.itb.rdMisses                             0                       # TLB misses on read requests
system.cpu.itb.wrAccesses                    56954353                       # TLB accesses on write requests
system.cpu.itb.wrMisses                         14078                       # TLB misses on write requests
system.cpu.kern.inst.arm                            0                       # number of arm instructions executed
system.cpu.kern.inst.quiesce                     5482                       # number of quiesce instructions executed
system.cpu.memDep0.conflictingLoads           4775291                       # Number of conflicting loads.
system.cpu.memDep0.conflictingStores          3529227                       # Number of conflicting stores.
system.cpu.memDep0.insertedLoads            445764730                       # Number of loads inserted to the mem dependence unit.
system.cpu.memDep0.insertedStores            37110035                       # Number of stores inserted to the mem dependence unit.
system.cpu.misc_regfile_reads              1737969637                       # number of misc regfile reads
system.cpu.misc_regfile_writes                 435830                       # number of misc regfile writes
system.cpu.numCycles                        772604693                       # number of cpu cycles simulated
system.cpu.numWorkItemsCompleted                    0                       # number of work items this cpu completed
system.cpu.numWorkItemsStarted                      0                       # number of work items this cpu started
system.cpu.quiesceCycles                   8851959058                       # Total number of cycles that CPU has spent quiesced or waiting for an interrupt
system.cpu.rename.BlockCycles                90601150                       # Number of cycles rename is blocking
system.cpu.rename.CommittedMaps            3558322721                       # Number of HB maps that are committed
system.cpu.rename.IQFullEvents               50630243                       # Number of times rename has blocked due to IQ full
system.cpu.rename.IdleCycles                101845450                       # Number of cycles rename is idle
system.cpu.rename.LQFullEvents                  46150                       # Number of times rename has blocked due to LQ full
system.cpu.rename.ROBFullEvents                229834                       # Number of times rename has blocked due to ROB full
system.cpu.rename.RenameLookups            7337735813                       # Number of register rename lookups that rename has made
system.cpu.rename.RenamedInsts             3661374622                       # Number of instructions processed by rename
system.cpu.rename.RenamedOperands          3765145031                       # Number of destination operands rename has renamed
system.cpu.rename.RunCycles                 438186168                       # Number of cycles rename is running
system.cpu.rename.SQFullEvents               44095980                       # Number of times rename has blocked due to SQ full
system.cpu.rename.SquashCycles                4171496                       # Number of cycles rename is squashing
system.cpu.rename.UnblockCycles             122870364                       # Number of cycles rename is unblocking
system.cpu.rename.UndoneMaps                206822302                       # Number of HB maps that are undone due to squashing
system.cpu.rename.fp_rename_lookups            202329                       # Number of floating rename lookups
system.cpu.rename.int_rename_lookups       3219249712                       # Number of integer rename lookups
system.cpu.rename.serializeStallCycles       12880199                       # count of cycles rename stalled for serializing inst
system.cpu.rename.serializingInsts             584926                       # count of serializing insts renamed
system.cpu.rename.skidInsts                 324493163                       # count of insts added to the skid buffer
system.cpu.rename.tempSerializingInsts         576182                       # count of temporary serializing insts renamed
system.cpu.rob.rob_reads                   4036628435                       # The number of ROB reads
system.cpu.rob.rob_writes                  7284104084                       # The number of ROB writes
system.cpu.timesIdled                           34956                       # Number of times that the entire CPU went into an idle state and unscheduled itself
system.pc.south_bridge.ide.disks.dma_read_bytes        36864                       # Number of bytes transfered via DMA reads (not PRD).
system.pc.south_bridge.ide.disks.dma_read_full_pages            9                       # Number of full page size DMA reads (not PRD).
system.pc.south_bridge.ide.disks.dma_read_txs            9                       # Number of DMA read transactions (not PRD).
system.pc.south_bridge.ide.disks.dma_write_bytes      2722816                       # Number of bytes transfered via DMA writes.
system.pc.south_bridge.ide.disks.dma_write_full_pages          664                       # Number of full page size DMA writes.
system.pc.south_bridge.ide.disks.dma_write_txs          668                       # Number of DMA write transactions.
system.ruby.DMA_Controller.Ack           |       42544    100.00%    100.00% |           0      0.00%    100.00%
system.ruby.DMA_Controller.Ack::total           42544                      
system.ruby.DMA_Controller.BUSY_RD.Data  |        1218    100.00%    100.00% |           0      0.00%    100.00%
system.ruby.DMA_Controller.BUSY_RD.Data::total         1218                      
system.ruby.DMA_Controller.BUSY_WR.Ack   |       42544    100.00%    100.00% |           0      0.00%    100.00%
system.ruby.DMA_Controller.BUSY_WR.Ack::total        42544                      
system.ruby.DMA_Controller.Data          |        1218    100.00%    100.00% |           0      0.00%    100.00%
system.ruby.DMA_Controller.Data::total           1218                      
system.ruby.DMA_Controller.READY.ReadRequest |        1218    100.00%    100.00% |           0      0.00%    100.00%
system.ruby.DMA_Controller.READY.ReadRequest::total         1218                      
system.ruby.DMA_Controller.READY.WriteRequest |       42544    100.00%    100.00% |           0      0.00%    100.00%
system.ruby.DMA_Controller.READY.WriteRequest::total        42544                      
system.ruby.DMA_Controller.ReadRequest   |        1218    100.00%    100.00% |           0      0.00%    100.00%
system.ruby.DMA_Controller.ReadRequest::total         1218                      
system.ruby.DMA_Controller.WriteRequest  |       42544    100.00%    100.00% |           0      0.00%    100.00%
system.ruby.DMA_Controller.WriteRequest::total        42544                      
system.ruby.Directory.incomplete_times_seqr       595797                      
system.ruby.Directory.miss_latency_hist_seqr.first_response_to_completion::bucket_size            1                      
system.ruby.Directory.miss_latency_hist_seqr.first_response_to_completion::max_bucket            9                      
system.ruby.Directory.miss_latency_hist_seqr.first_response_to_completion::samples            1                      
system.ruby.Directory.miss_latency_hist_seqr.first_response_to_completion::stdev          nan                      
system.ruby.Directory.miss_latency_hist_seqr.first_response_to_completion |           1    100.00%    100.00% |           0      0.00%    100.00% |           0      0.00%    100.00% |           0      0.00%    100.00% |           0      0.00%    100.00% |           0      0.00%    100.00% |           0      0.00%    100.00% |           0      0.00%    100.00% |           0      0.00%    100.00% |           0      0.00%    100.00%
system.ruby.Directory.miss_latency_hist_seqr.first_response_to_completion::total            1                      
system.ruby.Directory.miss_latency_hist_seqr.forward_to_first_response::bucket_size           16                      
system.ruby.Directory.miss_latency_hist_seqr.forward_to_first_response::max_bucket          159                      
system.ruby.Directory.miss_latency_hist_seqr.forward_to_first_response::samples            1                      
system.ruby.Directory.miss_latency_hist_seqr.forward_to_first_response::mean          141                      
system.ruby.Directory.miss_latency_hist_seqr.forward_to_first_response::gmean   141.000000                      
system.ruby.Directory.miss_latency_hist_seqr.forward_to_first_response::stdev          nan                      
system.ruby.Directory.miss_latency_hist_seqr.forward_to_first_response |           0      0.00%      0.00% |           0      0.00%      0.00% |           0      0.00%      0.00% |           0      0.00%      0.00% |           0      0.00%      0.00% |           0      0.00%      0.00% |           0      0.00%      0.00% |           0      0.00%      0.00% |           1    100.00%    100.00% |           0      0.00%    100.00%
system.ruby.Directory.miss_latency_hist_seqr.forward_to_first_response::total            1                      
system.ruby.Directory.miss_latency_hist_seqr.initial_to_forward::bucket_size            1                      
system.ruby.Directory.miss_latency_hist_seqr.initial_to_forward::max_bucket            9                      
system.ruby.Directory.miss_latency_hist_seqr.initial_to_forward::samples            1                      
system.ruby.Directory.miss_latency_hist_seqr.initial_to_forward::stdev          nan                      
system.ruby.Directory.miss_latency_hist_seqr.initial_to_forward |           1    100.00%    100.00% |           0      0.00%    100.00% |           0      0.00%    100.00% |           0      0.00%    100.00% |           0      0.00%    100.00% |           0      0.00%    100.00% |           0      0.00%    100.00% |           0      0.00%    100.00% |           0      0.00%    100.00% |           0      0.00%    100.00%
system.ruby.Directory.miss_latency_hist_seqr.initial_to_forward::total            1                      
system.ruby.Directory.miss_latency_hist_seqr.issue_to_initial_request::bucket_size            1                      
system.ruby.Directory.miss_latency_hist_seqr.issue_to_initial_request::max_bucket            9                      
system.ruby.Directory.miss_latency_hist_seqr.issue_to_initial_request::samples            1                      
system.ruby.Directory.miss_latency_hist_seqr.issue_to_initial_request::stdev          nan                      
system.ruby.Directory.miss_latency_hist_seqr.issue_to_initial_request |           1    100.00%    100.00% |           0      0.00%    100.00% |           0      0.00%    100.00% |           0      0.00%    100.00% |           0      0.00%    100.00% |           0      0.00%    100.00% |           0      0.00%    100.00% |           0      0.00%    100.00% |           0      0.00%    100.00% |           0      0.00%    100.00%
system.ruby.Directory.miss_latency_hist_seqr.issue_to_initial_request::total            1                      
system.ruby.Directory.miss_mach_latency_hist_seqr::bucket_size           16                      
system.ruby.Directory.miss_mach_latency_hist_seqr::max_bucket          159                      
system.ruby.Directory.miss_mach_latency_hist_seqr::samples       595798                      
system.ruby.Directory.miss_mach_latency_hist_seqr::mean     0.000237                      
system.ruby.Directory.miss_mach_latency_hist_seqr::stdev     0.182671                      
system.ruby.Directory.miss_mach_latency_hist_seqr |      595797    100.00%    100.00% |           0      0.00%    100.00% |           0      0.00%    100.00% |           0      0.00%    100.00% |           0      0.00%    100.00% |           0      0.00%    100.00% |           0      0.00%    100.00% |           0      0.00%    100.00% |           1      0.00%    100.00% |           0      0.00%    100.00%
system.ruby.Directory.miss_mach_latency_hist_seqr::total       595798                      
system.ruby.Directory_Controller.Ack            40640      0.00%      0.00%
system.ruby.Directory_Controller.All_acks_and_data_no_sharers        43097      0.00%      0.00%
system.ruby.Directory_Controller.All_acks_and_shared_data          665      0.00%      0.00%
system.ruby.Directory_Controller.DMA_READ         1218      0.00%      0.00%
system.ruby.Directory_Controller.DMA_WRITE        42544      0.00%      0.00%
system.ruby.Directory_Controller.E.DMA_READ          553      0.00%      0.00%
system.ruby.Directory_Controller.E.DMA_WRITE        40087      0.00%      0.00%
system.ruby.Directory_Controller.E.GETS        278828      0.00%      0.00%
system.ruby.Directory_Controller.E.GETX        316814      0.00%      0.00%
system.ruby.Directory_Controller.Exclusive_Data         2457      0.00%      0.00%
system.ruby.Directory_Controller.GETS          278970      0.00%      0.00%
system.ruby.Directory_Controller.GETX          317033      0.00%      0.00%
system.ruby.Directory_Controller.Memory_Ack       571509      0.00%      0.00%
system.ruby.Directory_Controller.Memory_Data       596195      0.00%      0.00%
system.ruby.Directory_Controller.NO.DMA_READ          182      0.00%      0.00%
system.ruby.Directory_Controller.NO.DMA_WRITE         2457      0.00%      0.00%
system.ruby.Directory_Controller.NO.PUT        561125      0.00%      0.00%
system.ruby.Directory_Controller.NO_B.UnblockM       595798      0.00%      0.00%
system.ruby.Directory_Controller.NO_B_W.Memory_Data       595642      0.00%      0.00%
system.ruby.Directory_Controller.NO_DR_B.All_acks_and_data_no_sharers          553      0.00%      0.00%
system.ruby.Directory_Controller.NO_DR_B_D.All_acks_and_shared_data          665      0.00%      0.00%
system.ruby.Directory_Controller.NO_DR_B_D.Shared_Data          665      0.00%      0.00%
system.ruby.Directory_Controller.NO_DR_B_W.Ack          553      0.00%      0.00%
system.ruby.Directory_Controller.NO_DR_B_W.Memory_Data          553      0.00%      0.00%
system.ruby.Directory_Controller.NO_DW_B_W.Ack        40087      0.00%      0.00%
system.ruby.Directory_Controller.NO_DW_B_W.All_acks_and_data_no_sharers        42544      0.00%      0.00%
system.ruby.Directory_Controller.NO_DW_B_W.Exclusive_Data         2457      0.00%      0.00%
system.ruby.Directory_Controller.NO_DW_W.Memory_Ack        42544      0.00%      0.00%
system.ruby.Directory_Controller.PUT           561128      0.00%      0.00%
system.ruby.Directory_Controller.S.DMA_READ          483      0.00%      0.00%
system.ruby.Directory_Controller.S.GETX           156      0.00%      0.00%
system.ruby.Directory_Controller.S.PUT              3      0.00%      0.00%
system.ruby.Directory_Controller.Shared_Data          665      0.00%      0.00%
system.ruby.Directory_Controller.UnblockM       595798      0.00%      0.00%
system.ruby.Directory_Controller.WB.GETS          142      0.00%      0.00%
system.ruby.Directory_Controller.WB.GETX           63      0.00%      0.00%
system.ruby.Directory_Controller.WB.Writeback_Dirty            3      0.00%      0.00%
system.ruby.Directory_Controller.WB.Writeback_Exclusive_Clean        32716      0.00%      0.00%
system.ruby.Directory_Controller.WB.Writeback_Exclusive_Dirty       528409      0.00%      0.00%
system.ruby.Directory_Controller.WB_E_W.Memory_Ack       528962      0.00%      0.00%
system.ruby.Directory_Controller.WB_O_W.Memory_Ack            3      0.00%      0.00%
system.ruby.Directory_Controller.Writeback_Dirty            3      0.00%      0.00%
system.ruby.Directory_Controller.Writeback_Exclusive_Clean        32716      0.00%      0.00%
system.ruby.Directory_Controller.Writeback_Exclusive_Dirty       528409      0.00%      0.00%
system.ruby.IFETCH.Directory.miss_type_mach_latency_hist_seqr::bucket_size            1                      
system.ruby.IFETCH.Directory.miss_type_mach_latency_hist_seqr::max_bucket            9                      
system.ruby.IFETCH.Directory.miss_type_mach_latency_hist_seqr::samples        19889                      
system.ruby.IFETCH.Directory.miss_type_mach_latency_hist_seqr |       19889    100.00%    100.00% |           0      0.00%    100.00% |           0      0.00%    100.00% |           0      0.00%    100.00% |           0      0.00%    100.00% |           0      0.00%    100.00% |           0      0.00%    100.00% |           0      0.00%    100.00% |           0      0.00%    100.00% |           0      0.00%    100.00%
system.ruby.IFETCH.Directory.miss_type_mach_latency_hist_seqr::total        19889                      
system.ruby.IFETCH.L1Cache.hit_type_mach_latency_hist_seqr::bucket_size            1                      
system.ruby.IFETCH.L1Cache.hit_type_mach_latency_hist_seqr::max_bucket            9                      
system.ruby.IFETCH.L1Cache.hit_type_mach_latency_hist_seqr::samples     55360323                      
system.ruby.IFETCH.L1Cache.hit_type_mach_latency_hist_seqr |    55360323    100.00%    100.00% |           0      0.00%    100.00% |           0      0.00%    100.00% |           0      0.00%    100.00% |           0      0.00%    100.00% |           0      0.00%    100.00% |           0      0.00%    100.00% |           0      0.00%    100.00% |           0      0.00%    100.00% |           0      0.00%    100.00%
system.ruby.IFETCH.L1Cache.hit_type_mach_latency_hist_seqr::total     55360323                      
system.ruby.IFETCH.L2Cache.hit_type_mach_latency_hist_seqr::bucket_size            1                      
system.ruby.IFETCH.L2Cache.hit_type_mach_latency_hist_seqr::max_bucket            9                      
system.ruby.IFETCH.L2Cache.hit_type_mach_latency_hist_seqr::samples      1476446                      
system.ruby.IFETCH.L2Cache.hit_type_mach_latency_hist_seqr |     1476446    100.00%    100.00% |           0      0.00%    100.00% |           0      0.00%    100.00% |           0      0.00%    100.00% |           0      0.00%    100.00% |           0      0.00%    100.00% |           0      0.00%    100.00% |           0      0.00%    100.00% |           0      0.00%    100.00% |           0      0.00%    100.00%
system.ruby.IFETCH.L2Cache.hit_type_mach_latency_hist_seqr::total      1476446                      
system.ruby.IFETCH.hit_latency_hist_seqr::bucket_size            1                      
system.ruby.IFETCH.hit_latency_hist_seqr::max_bucket            9                      
system.ruby.IFETCH.hit_latency_hist_seqr::samples     56836769                      
system.ruby.IFETCH.hit_latency_hist_seqr |    56836769    100.00%    100.00% |           0      0.00%    100.00% |           0      0.00%    100.00% |           0      0.00%    100.00% |           0      0.00%    100.00% |           0      0.00%    100.00% |           0      0.00%    100.00% |           0      0.00%    100.00% |           0      0.00%    100.00% |           0      0.00%    100.00%
system.ruby.IFETCH.hit_latency_hist_seqr::total     56836769                      
system.ruby.IFETCH.latency_hist_seqr::bucket_size            1                      
system.ruby.IFETCH.latency_hist_seqr::max_bucket            9                      
system.ruby.IFETCH.latency_hist_seqr::samples     56856658                      
system.ruby.IFETCH.latency_hist_seqr     |    56856658    100.00%    100.00% |           0      0.00%    100.00% |           0      0.00%    100.00% |           0      0.00%    100.00% |           0      0.00%    100.00% |           0      0.00%    100.00% |           0      0.00%    100.00% |           0      0.00%    100.00% |           0      0.00%    100.00% |           0      0.00%    100.00%
system.ruby.IFETCH.latency_hist_seqr::total     56856658                      
system.ruby.IFETCH.miss_latency_hist_seqr::bucket_size            1                      
system.ruby.IFETCH.miss_latency_hist_seqr::max_bucket            9                      
system.ruby.IFETCH.miss_latency_hist_seqr::samples        19889                      
system.ruby.IFETCH.miss_latency_hist_seqr |       19889    100.00%    100.00% |           0      0.00%    100.00% |           0      0.00%    100.00% |           0      0.00%    100.00% |           0      0.00%    100.00% |           0      0.00%    100.00% |           0      0.00%    100.00% |           0      0.00%    100.00% |           0      0.00%    100.00% |           0      0.00%    100.00%
system.ruby.IFETCH.miss_latency_hist_seqr::total        19889                      
system.ruby.L1Cache.hit_mach_latency_hist_seqr::bucket_size            1                      
system.ruby.L1Cache.hit_mach_latency_hist_seqr::max_bucket            9                      
system.ruby.L1Cache.hit_mach_latency_hist_seqr::samples    486561440                      
system.ruby.L1Cache.hit_mach_latency_hist_seqr |   486561440    100.00%    100.00% |           0      0.00%    100.00% |           0      0.00%    100.00% |           0      0.00%    100.00% |           0      0.00%    100.00% |           0      0.00%    100.00% |           0      0.00%    100.00% |           0      0.00%    100.00% |           0      0.00%    100.00% |           0      0.00%    100.00%
system.ruby.L1Cache.hit_mach_latency_hist_seqr::total    486561440                      
system.ruby.L1Cache_Controller.Ack                156      0.00%      0.00%
system.ruby.L1Cache_Controller.All_acks_no_sharers       595798      0.00%      0.00%
system.ruby.L1Cache_Controller.Complete_L2_to_L1      7692474      0.00%      0.00%
system.ruby.L1Cache_Controller.Exclusive_Data       595642      0.00%      0.00%
system.ruby.L1Cache_Controller.I.Ifetch         19889      0.00%      0.00%
system.ruby.L1Cache_Controller.I.Load          258939      0.00%      0.00%
system.ruby.L1Cache_Controller.I.NC_DMA_GETS          553      0.00%      0.00%
system.ruby.L1Cache_Controller.I.Other_GETX        40087      0.00%      0.00%
system.ruby.L1Cache_Controller.I.Store         316814      0.00%      0.00%
system.ruby.L1Cache_Controller.IM.Exclusive_Data       316814      0.00%      0.00%
system.ruby.L1Cache_Controller.IS.Exclusive_Data       278828      0.00%      0.00%
system.ruby.L1Cache_Controller.IS.L1_to_L2            3      0.00%      0.00%
system.ruby.L1Cache_Controller.Ifetch        57195819      0.00%      0.00%
system.ruby.L1Cache_Controller.L1_to_L2       8286449      0.00%      0.00%
system.ruby.L1Cache_Controller.L2_Replacement       561128      0.00%      0.00%
system.ruby.L1Cache_Controller.Load         407669391      0.00%      0.00%
system.ruby.L1Cache_Controller.M.Ifetch      54608234      0.00%      0.00%
system.ruby.L1Cache_Controller.M.L1_to_L2      1660457      0.00%      0.00%
system.ruby.L1Cache_Controller.M.L2_Replacement        32716      0.00%      0.00%
system.ruby.L1Cache_Controller.M.Load         9056933      0.00%      0.00%
system.ruby.L1Cache_Controller.M.NC_DMA_GETS            4      0.00%      0.00%
system.ruby.L1Cache_Controller.M.Other_GETX           65      0.00%      0.00%
system.ruby.L1Cache_Controller.M.Store         229229      0.00%      0.00%
system.ruby.L1Cache_Controller.M.Trigger_L2_to_L1D       179678      0.00%      0.00%
system.ruby.L1Cache_Controller.M.Trigger_L2_to_L1I      1437326      0.00%      0.00%
system.ruby.L1Cache_Controller.MI.Ifetch           15      0.00%      0.00%
system.ruby.L1Cache_Controller.MI.Load            198      0.00%      0.00%
system.ruby.L1Cache_Controller.MI.Store            96      0.00%      0.00%
system.ruby.L1Cache_Controller.MI.Writeback_Ack       561125      0.00%      0.00%
system.ruby.L1Cache_Controller.MM.Ifetch       752089      0.00%      0.00%
system.ruby.L1Cache_Controller.MM.L1_to_L2      6625799      0.00%      0.00%
system.ruby.L1Cache_Controller.MM.L2_Replacement       528409      0.00%      0.00%
system.ruby.L1Cache_Controller.MM.Load      391871044      0.00%      0.00%
system.ruby.L1Cache_Controller.MM.NC_DMA_GETS          178      0.00%      0.00%
system.ruby.L1Cache_Controller.MM.Other_GETX         2392      0.00%      0.00%
system.ruby.L1Cache_Controller.MM.Store      30044049      0.00%      0.00%
system.ruby.L1Cache_Controller.MM.Trigger_L2_to_L1D      6036188      0.00%      0.00%
system.ruby.L1Cache_Controller.MM.Trigger_L2_to_L1I        39120      0.00%      0.00%
system.ruby.L1Cache_Controller.MMR.Ifetch        39120      0.00%      0.00%
system.ruby.L1Cache_Controller.MMR.Load       5836839      0.00%      0.00%
system.ruby.L1Cache_Controller.MMR.Store       199349      0.00%      0.00%
system.ruby.L1Cache_Controller.MMT.Complete_L2_to_L1      6075308      0.00%      0.00%
system.ruby.L1Cache_Controller.MMT.Ifetch         8551      0.00%      0.00%
system.ruby.L1Cache_Controller.MMT.L1_to_L2           10      0.00%      0.00%
system.ruby.L1Cache_Controller.MMT.Load        393269      0.00%      0.00%
system.ruby.L1Cache_Controller.MMT.Store        51223      0.00%      0.00%
system.ruby.L1Cache_Controller.MM_W.All_acks_no_sharers       316814      0.00%      0.00%
system.ruby.L1Cache_Controller.MR.Ifetch      1437326      0.00%      0.00%
system.ruby.L1Cache_Controller.MR.Load         174178      0.00%      0.00%
system.ruby.L1Cache_Controller.MR.Store          5500      0.00%      0.00%
system.ruby.L1Cache_Controller.MT.Complete_L2_to_L1      1617004      0.00%      0.00%
system.ruby.L1Cache_Controller.MT.Ifetch       330595      0.00%      0.00%
system.ruby.L1Cache_Controller.MT.L1_to_L2            5      0.00%      0.00%
system.ruby.L1Cache_Controller.MT.Load          77953      0.00%      0.00%
system.ruby.L1Cache_Controller.MT.Store           929      0.00%      0.00%
system.ruby.L1Cache_Controller.M_W.All_acks_no_sharers       278828      0.00%      0.00%
system.ruby.L1Cache_Controller.NC_DMA_GETS         1218      0.00%      0.00%
system.ruby.L1Cache_Controller.O.L1_to_L2          175      0.00%      0.00%
system.ruby.L1Cache_Controller.O.L2_Replacement            3      0.00%      0.00%
system.ruby.L1Cache_Controller.O.Load               9      0.00%      0.00%
system.ruby.L1Cache_Controller.O.NC_DMA_GETS          483      0.00%      0.00%
system.ruby.L1Cache_Controller.O.Store              9      0.00%      0.00%
system.ruby.L1Cache_Controller.O.Trigger_L2_to_L1D          162      0.00%      0.00%
system.ruby.L1Cache_Controller.OI.Writeback_Ack            3      0.00%      0.00%
system.ruby.L1Cache_Controller.OM.Ack             156      0.00%      0.00%
system.ruby.L1Cache_Controller.OM.All_acks_no_sharers          156      0.00%      0.00%
system.ruby.L1Cache_Controller.OR.Load             15      0.00%      0.00%
system.ruby.L1Cache_Controller.OR.Store           147      0.00%      0.00%
system.ruby.L1Cache_Controller.OT.Complete_L2_to_L1          162      0.00%      0.00%
system.ruby.L1Cache_Controller.OT.Load             14      0.00%      0.00%
system.ruby.L1Cache_Controller.OT.Store            95      0.00%      0.00%
system.ruby.L1Cache_Controller.Other_GETX        42544      0.00%      0.00%
system.ruby.L1Cache_Controller.Store         30847440      0.00%      0.00%
system.ruby.L1Cache_Controller.Trigger_L2_to_L1D      6216028      0.00%      0.00%
system.ruby.L1Cache_Controller.Trigger_L2_to_L1I      1476446      0.00%      0.00%
system.ruby.L1Cache_Controller.Writeback_Ack       561128      0.00%      0.00%
system.ruby.L2Cache.hit_mach_latency_hist_seqr::bucket_size            1                      
system.ruby.L2Cache.hit_mach_latency_hist_seqr::max_bucket            9                      
system.ruby.L2Cache.hit_mach_latency_hist_seqr::samples      7692474                      
system.ruby.L2Cache.hit_mach_latency_hist_seqr |     7692474    100.00%    100.00% |           0      0.00%    100.00% |           0      0.00%    100.00% |           0      0.00%    100.00% |           0      0.00%    100.00% |           0      0.00%    100.00% |           0      0.00%    100.00% |           0      0.00%    100.00% |           0      0.00%    100.00% |           0      0.00%    100.00%
system.ruby.L2Cache.hit_mach_latency_hist_seqr::total      7692474                      
system.ruby.LD.Directory.miss_type_mach_latency_hist_seqr::bucket_size           16                      
system.ruby.LD.Directory.miss_type_mach_latency_hist_seqr::max_bucket          159                      
system.ruby.LD.Directory.miss_type_mach_latency_hist_seqr::samples       258939                      
system.ruby.LD.Directory.miss_type_mach_latency_hist_seqr::mean     0.000545                      
system.ruby.LD.Directory.miss_type_mach_latency_hist_seqr::stdev     0.277090                      
system.ruby.LD.Directory.miss_type_mach_latency_hist_seqr |      258938    100.00%    100.00% |           0      0.00%    100.00% |           0      0.00%    100.00% |           0      0.00%    100.00% |           0      0.00%    100.00% |           0      0.00%    100.00% |           0      0.00%    100.00% |           0      0.00%    100.00% |           1      0.00%    100.00% |           0      0.00%    100.00%
system.ruby.LD.Directory.miss_type_mach_latency_hist_seqr::total       258939                      
system.ruby.LD.L1Cache.hit_type_mach_latency_hist_seqr::bucket_size            1                      
system.ruby.LD.L1Cache.hit_type_mach_latency_hist_seqr::max_bucket            9                      
system.ruby.LD.L1Cache.hit_type_mach_latency_hist_seqr::samples    400927986                      
system.ruby.LD.L1Cache.hit_type_mach_latency_hist_seqr |   400927986    100.00%    100.00% |           0      0.00%    100.00% |           0      0.00%    100.00% |           0      0.00%    100.00% |           0      0.00%    100.00% |           0      0.00%    100.00% |           0      0.00%    100.00% |           0      0.00%    100.00% |           0      0.00%    100.00% |           0      0.00%    100.00%
system.ruby.LD.L1Cache.hit_type_mach_latency_hist_seqr::total    400927986                      
system.ruby.LD.L2Cache.hit_type_mach_latency_hist_seqr::bucket_size            1                      
system.ruby.LD.L2Cache.hit_type_mach_latency_hist_seqr::max_bucket            9                      
system.ruby.LD.L2Cache.hit_type_mach_latency_hist_seqr::samples      6011032                      
system.ruby.LD.L2Cache.hit_type_mach_latency_hist_seqr |     6011032    100.00%    100.00% |           0      0.00%    100.00% |           0      0.00%    100.00% |           0      0.00%    100.00% |           0      0.00%    100.00% |           0      0.00%    100.00% |           0      0.00%    100.00% |           0      0.00%    100.00% |           0      0.00%    100.00% |           0      0.00%    100.00%
system.ruby.LD.L2Cache.hit_type_mach_latency_hist_seqr::total      6011032                      
system.ruby.LD.hit_latency_hist_seqr::bucket_size            1                      
system.ruby.LD.hit_latency_hist_seqr::max_bucket            9                      
system.ruby.LD.hit_latency_hist_seqr::samples    406939018                      
system.ruby.LD.hit_latency_hist_seqr     |   406939018    100.00%    100.00% |           0      0.00%    100.00% |           0      0.00%    100.00% |           0      0.00%    100.00% |           0      0.00%    100.00% |           0      0.00%    100.00% |           0      0.00%    100.00% |           0      0.00%    100.00% |           0      0.00%    100.00% |           0      0.00%    100.00%
system.ruby.LD.hit_latency_hist_seqr::total    406939018                      
system.ruby.LD.latency_hist_seqr::bucket_size           16                      
system.ruby.LD.latency_hist_seqr::max_bucket          159                      
system.ruby.LD.latency_hist_seqr::samples    407197957                      
system.ruby.LD.latency_hist_seqr::mean       0.000000                      
system.ruby.LD.latency_hist_seqr::stdev      0.006987                      
system.ruby.LD.latency_hist_seqr         |   407197956    100.00%    100.00% |           0      0.00%    100.00% |           0      0.00%    100.00% |           0      0.00%    100.00% |           0      0.00%    100.00% |           0      0.00%    100.00% |           0      0.00%    100.00% |           0      0.00%    100.00% |           1      0.00%    100.00% |           0      0.00%    100.00%
system.ruby.LD.latency_hist_seqr::total     407197957                      
system.ruby.LD.miss_latency_hist_seqr::bucket_size           16                      
system.ruby.LD.miss_latency_hist_seqr::max_bucket          159                      
system.ruby.LD.miss_latency_hist_seqr::samples       258939                      
system.ruby.LD.miss_latency_hist_seqr::mean     0.000545                      
system.ruby.LD.miss_latency_hist_seqr::stdev     0.277090                      
system.ruby.LD.miss_latency_hist_seqr    |      258938    100.00%    100.00% |           0      0.00%    100.00% |           0      0.00%    100.00% |           0      0.00%    100.00% |           0      0.00%    100.00% |           0      0.00%    100.00% |           0      0.00%    100.00% |           0      0.00%    100.00% |           1      0.00%    100.00% |           0      0.00%    100.00%
system.ruby.LD.miss_latency_hist_seqr::total       258939                      
system.ruby.Locked_RMW_Read.Directory.miss_type_mach_latency_hist_seqr::bucket_size            1                      
system.ruby.Locked_RMW_Read.Directory.miss_type_mach_latency_hist_seqr::max_bucket            9                      
system.ruby.Locked_RMW_Read.Directory.miss_type_mach_latency_hist_seqr::samples           68                      
system.ruby.Locked_RMW_Read.Directory.miss_type_mach_latency_hist_seqr |          68    100.00%    100.00% |           0      0.00%    100.00% |           0      0.00%    100.00% |           0      0.00%    100.00% |           0      0.00%    100.00% |           0      0.00%    100.00% |           0      0.00%    100.00% |           0      0.00%    100.00% |           0      0.00%    100.00% |           0      0.00%    100.00%
system.ruby.Locked_RMW_Read.Directory.miss_type_mach_latency_hist_seqr::total           68                      
system.ruby.Locked_RMW_Read.L1Cache.hit_type_mach_latency_hist_seqr::bucket_size            1                      
system.ruby.Locked_RMW_Read.L1Cache.hit_type_mach_latency_hist_seqr::max_bucket            9                      
system.ruby.Locked_RMW_Read.L1Cache.hit_type_mach_latency_hist_seqr::samples       422855                      
system.ruby.Locked_RMW_Read.L1Cache.hit_type_mach_latency_hist_seqr |      422855    100.00%    100.00% |           0      0.00%    100.00% |           0      0.00%    100.00% |           0      0.00%    100.00% |           0      0.00%    100.00% |           0      0.00%    100.00% |           0      0.00%    100.00% |           0      0.00%    100.00% |           0      0.00%    100.00% |           0      0.00%    100.00%
system.ruby.Locked_RMW_Read.L1Cache.hit_type_mach_latency_hist_seqr::total       422855                      
system.ruby.Locked_RMW_Read.L2Cache.hit_type_mach_latency_hist_seqr::bucket_size            1                      
system.ruby.Locked_RMW_Read.L2Cache.hit_type_mach_latency_hist_seqr::max_bucket            9                      
system.ruby.Locked_RMW_Read.L2Cache.hit_type_mach_latency_hist_seqr::samples         2220                      
system.ruby.Locked_RMW_Read.L2Cache.hit_type_mach_latency_hist_seqr |        2220    100.00%    100.00% |           0      0.00%    100.00% |           0      0.00%    100.00% |           0      0.00%    100.00% |           0      0.00%    100.00% |           0      0.00%    100.00% |           0      0.00%    100.00% |           0      0.00%    100.00% |           0      0.00%    100.00% |           0      0.00%    100.00%
system.ruby.Locked_RMW_Read.L2Cache.hit_type_mach_latency_hist_seqr::total         2220                      
system.ruby.Locked_RMW_Read.hit_latency_hist_seqr::bucket_size            1                      
system.ruby.Locked_RMW_Read.hit_latency_hist_seqr::max_bucket            9                      
system.ruby.Locked_RMW_Read.hit_latency_hist_seqr::samples       425075                      
system.ruby.Locked_RMW_Read.hit_latency_hist_seqr |      425075    100.00%    100.00% |           0      0.00%    100.00% |           0      0.00%    100.00% |           0      0.00%    100.00% |           0      0.00%    100.00% |           0      0.00%    100.00% |           0      0.00%    100.00% |           0      0.00%    100.00% |           0      0.00%    100.00% |           0      0.00%    100.00%
system.ruby.Locked_RMW_Read.hit_latency_hist_seqr::total       425075                      
system.ruby.Locked_RMW_Read.latency_hist_seqr::bucket_size            1                      
system.ruby.Locked_RMW_Read.latency_hist_seqr::max_bucket            9                      
system.ruby.Locked_RMW_Read.latency_hist_seqr::samples       425143                      
system.ruby.Locked_RMW_Read.latency_hist_seqr |      425143    100.00%    100.00% |           0      0.00%    100.00% |           0      0.00%    100.00% |           0      0.00%    100.00% |           0      0.00%    100.00% |           0      0.00%    100.00% |           0      0.00%    100.00% |           0      0.00%    100.00% |           0      0.00%    100.00% |           0      0.00%    100.00%
system.ruby.Locked_RMW_Read.latency_hist_seqr::total       425143                      
system.ruby.Locked_RMW_Read.miss_latency_hist_seqr::bucket_size            1                      
system.ruby.Locked_RMW_Read.miss_latency_hist_seqr::max_bucket            9                      
system.ruby.Locked_RMW_Read.miss_latency_hist_seqr::samples           68                      
system.ruby.Locked_RMW_Read.miss_latency_hist_seqr |          68    100.00%    100.00% |           0      0.00%    100.00% |           0      0.00%    100.00% |           0      0.00%    100.00% |           0      0.00%    100.00% |           0      0.00%    100.00% |           0      0.00%    100.00% |           0      0.00%    100.00% |           0      0.00%    100.00% |           0      0.00%    100.00%
system.ruby.Locked_RMW_Read.miss_latency_hist_seqr::total           68                      
system.ruby.Locked_RMW_Write.L1Cache.hit_type_mach_latency_hist_seqr::bucket_size            1                      
system.ruby.Locked_RMW_Write.L1Cache.hit_type_mach_latency_hist_seqr::max_bucket            9                      
system.ruby.Locked_RMW_Write.L1Cache.hit_type_mach_latency_hist_seqr::samples       425144                      
system.ruby.Locked_RMW_Write.L1Cache.hit_type_mach_latency_hist_seqr |      425144    100.00%    100.00% |           0      0.00%    100.00% |           0      0.00%    100.00% |           0      0.00%    100.00% |           0      0.00%    100.00% |           0      0.00%    100.00% |           0      0.00%    100.00% |           0      0.00%    100.00% |           0      0.00%    100.00% |           0      0.00%    100.00%
system.ruby.Locked_RMW_Write.L1Cache.hit_type_mach_latency_hist_seqr::total       425144                      
system.ruby.Locked_RMW_Write.hit_latency_hist_seqr::bucket_size            1                      
system.ruby.Locked_RMW_Write.hit_latency_hist_seqr::max_bucket            9                      
system.ruby.Locked_RMW_Write.hit_latency_hist_seqr::samples       425144                      
[...]
system.mem_ctrls.bytesPerActivate::0-127         1285     63.49%     63.49% # Bytes accessed per row activation
system.mem_ctrls.bytesPerActivate::128-255          441     21.79%     85.28% # Bytes accessed per row activation
system.mem_ctrls.bytesPerActivate::256-383           87      4.30%     89.58% # Bytes accessed per row activation
system.mem_ctrls.bytesPerActivate::384-511           46      2.27%     91.85% # Bytes accessed per row activation
system.mem_ctrls.bytesPerActivate::512-639           30      1.48%     93.33% # Bytes accessed per row activation
system.mem_ctrls.bytesPerActivate::640-767           18      0.89%     94.22% # Bytes accessed per row activation
system.mem_ctrls.bytesPerActivate::768-895            7      0.35%     94.57% # Bytes accessed per row activation
system.mem_ctrls.bytesPerActivate::896-1023           15      0.74%     95.31% # Bytes accessed per row activation
system.mem_ctrls.bytesPerActivate::1024-1151           95      4.69%    100.00% # Bytes accessed per row activation
system.mem_ctrls.bytesPerActivate::total         2024                       # Bytes accessed per row activation
system.mem_ctrls.rdPerTurnAround::samples          116                       # Reads before turning the bus around for writes
system.mem_ctrls.rdPerTurnAround::mean      26.198276                       # Reads before turning the bus around for writes
system.mem_ctrls.rdPerTurnAround::stdev     28.171901                       # Reads before turning the bus around for writes
system.mem_ctrls.rdPerTurnAround::0-7              31     26.72%     26.72% # Reads before turning the bus around for writes
system.mem_ctrls.rdPerTurnAround::8-15             22     18.97%     45.69% # Reads before turning the bus around for writes
system.mem_ctrls.rdPerTurnAround::16-23            12     10.34%     56.03% # Reads before turning the bus around for writes
system.mem_ctrls.rdPerTurnAround::24-31            14     12.07%     68.10% # Reads before turning the bus around for writes
system.mem_ctrls.rdPerTurnAround::32-39            13     11.21%     79.31% # Reads before turning the bus around for writes
system.mem_ctrls.rdPerTurnAround::40-47             7      6.03%     85.34% # Reads before turning the bus around for writes
system.mem_ctrls.rdPerTurnAround::48-55             2      1.72%     87.07% # Reads before turning the bus around for writes
system.mem_ctrls.rdPerTurnAround::56-63             2      1.72%     88.79% # Reads before turning the bus around for writes
system.mem_ctrls.rdPerTurnAround::64-71             5      4.31%     93.10% # Reads before turning the bus around for writes
system.mem_ctrls.rdPerTurnAround::72-79             1      0.86%     93.97% # Reads before turning the bus around for writes
system.mem_ctrls.rdPerTurnAround::80-87             2      1.72%     95.69% # Reads before turning the bus around for writes
system.mem_ctrls.rdPerTurnAround::88-95             2      1.72%     97.41% # Reads before turning the bus around for writes
system.mem_ctrls.rdPerTurnAround::96-103            1      0.86%     98.28% # Reads before turning the bus around for writes
system.mem_ctrls.rdPerTurnAround::120-127            1      0.86%     99.14% # Reads before turning the bus around for writes
system.mem_ctrls.rdPerTurnAround::168-175            1      0.86%    100.00% # Reads before turning the bus around for writes
system.mem_ctrls.rdPerTurnAround::total           116                       # Reads before turning the bus around for writes
system.mem_ctrls.wrPerTurnAround::samples          116                       # Writes before turning the bus around for reads
system.mem_ctrls.wrPerTurnAround::mean      18.818966                       # Writes before turning the bus around for reads
system.mem_ctrls.wrPerTurnAround::gmean     18.472211                       # Writes before turning the bus around for reads
system.mem_ctrls.wrPerTurnAround::stdev      4.697084                       # Writes before turning the bus around for reads
system.mem_ctrls.wrPerTurnAround::16               27     23.28%     23.28% # Writes before turning the bus around for reads
system.mem_ctrls.wrPerTurnAround::17                1      0.86%     24.14% # Writes before turning the bus around for reads
system.mem_ctrls.wrPerTurnAround::18               55     47.41%     71.55% # Writes before turning the bus around for reads
system.mem_ctrls.wrPerTurnAround::19               13     11.21%     82.76% # Writes before turning the bus around for reads
system.mem_ctrls.wrPerTurnAround::20                7      6.03%     88.79% # Writes before turning the bus around for reads
system.mem_ctrls.wrPerTurnAround::21                4      3.45%     92.24% # Writes before turning the bus around for reads
system.mem_ctrls.wrPerTurnAround::22                4      3.45%     95.69% # Writes before turning the bus around for reads
system.mem_ctrls.wrPerTurnAround::23                1      0.86%     96.55% # Writes before turning the bus around for reads
system.mem_ctrls.wrPerTurnAround::27                1      0.86%     97.41% # Writes before turning the bus around for reads
system.mem_ctrls.wrPerTurnAround::39                1      0.86%     98.28% # Writes before turning the bus around for reads
system.mem_ctrls.wrPerTurnAround::45                1      0.86%     99.14% # Writes before turning the bus around for reads
system.mem_ctrls.wrPerTurnAround::51                1      0.86%    100.00% # Writes before turning the bus around for reads
system.mem_ctrls.wrPerTurnAround::total           116                       # Writes before turning the bus around for reads
system.mem_ctrls.bytesReadDRAM                 194752                       # Total number of bytes read from DRAM
system.mem_ctrls.bytesReadWrQ                     704                       # Total number of bytes read from write queue
system.mem_ctrls.bytesWritten                  139712                       # Total number of bytes written to DRAM
system.mem_ctrls.bytesReadSys                  195456                       # Total read bytes from the system interface side
system.mem_ctrls.bytesWrittenSys               139840                       # Total written bytes from the system interface side
system.mem_ctrls.avgRdBW                        38.43                       # Average DRAM read bandwidth in MiByte/s
system.mem_ctrls.avgWrBW                        27.57                       # Average achieved write bandwidth in MiByte/s
system.mem_ctrls.avgRdBWSys                     38.57                       # Average system read bandwidth in MiByte/s
system.mem_ctrls.avgWrBWSys                     27.59                       # Average system write bandwidth in MiByte/s
system.mem_ctrls.peakBW                      12800.00                       # Theoretical peak bandwidth in MiByte/s
system.mem_ctrls.busUtil                         0.52                       # Data bus utilization in percentage
system.mem_ctrls.busUtilRead                     0.30                       # Data bus utilization in percentage for reads
system.mem_ctrls.busUtilWrite                    0.22                       # Data bus utilization in percentage for writes
system.mem_ctrls.totGap                    5068024317                       # Total gap between requests
system.mem_ctrls.avgGap                     967364.82                       # Average gap between requests
system.mem_ctrls.masterReadBytes::.ruby.dir_cntrl0       194752                       # Per-master bytes read from memory
system.mem_ctrls.masterWriteBytes::.ruby.dir_cntrl0       139712                       # Per-master bytes write to memory
system.mem_ctrls.masterReadRate::.ruby.dir_cntrl0 38427639.567839443684                       # Per-master bytes read from memory rate (Bytes/sec)
system.mem_ctrls.masterWriteRate::.ruby.dir_cntrl0 27567379.946300853044                       # Per-master bytes write to memory rate (Bytes/sec)
system.mem_ctrls.masterReadAccesses::.ruby.dir_cntrl0         3054                       # Per-master read serviced memory accesses
system.mem_ctrls.masterWriteAccesses::.ruby.dir_cntrl0         2185                       # Per-master write serviced memory accesses
system.mem_ctrls.masterReadTotalLat::.ruby.dir_cntrl0     84598094                       # Per-master read total memory access latency
system.mem_ctrls.masterWriteTotalLat::.ruby.dir_cntrl0 166018780327                       # Per-master write total memory access latency
system.mem_ctrls.masterReadAvgLat::.ruby.dir_cntrl0     27700.75                       # Per-master read average memory access latency
system.mem_ctrls.masterWriteAvgLat::.ruby.dir_cntrl0  75981135.16                       # Per-master write average memory access latency
system.mem_ctrls.pageHitRate                    61.25                       # Row buffer hit rate, read and write combined
system.mem_ctrls.rank1.actEnergy              7040040                       # Energy for activate commands per rank (pJ)
system.mem_ctrls.rank1.preEnergy              3738075                       # Energy for precharge commands per rank (pJ)
system.mem_ctrls.rank1.readEnergy            10809960                       # Energy for read commands per rank (pJ)
system.mem_ctrls.rank1.writeEnergy            5893380                       # Energy for write commands per rank (pJ)
system.mem_ctrls.rank1.refreshEnergy     400130640.000000                       # Energy for refresh commands per rank (pJ)
system.mem_ctrls.rank1.actBackEnergy        313299360                       # Energy for active background per rank (pJ)
system.mem_ctrls.rank1.preBackEnergy       1682288160                       # Energy for precharge background per rank (pJ)
system.mem_ctrls.rank1.actPowerDownEnergy            0                       # Energy for active power-down per rank (pJ)
system.mem_ctrls.rank1.prePowerDownEnergy            0                       # Energy for precharge power-down per rank (pJ)
system.mem_ctrls.rank1.selfRefreshEnergy            0                       # Energy for self refresh per rank (pJ)
system.mem_ctrls.rank1.totalEnergy         2423199615                       # Total energy per rank (pJ)
system.mem_ctrls.rank1.averagePower        478.135482                       # Core power per rank (mW)
system.mem_ctrls.rank1.totalIdleTime                0                       # Total Idle time Per DRAM Rank
system.mem_ctrls.rank1.memoryStateTime::IDLE   4370263453                       # Time in different power states
system.mem_ctrls.rank1.memoryStateTime::REF    169260000                       # Time in different power states
system.mem_ctrls.rank1.memoryStateTime::SREF            0                       # Time in different power states
system.mem_ctrls.rank1.memoryStateTime::PRE_PDN            0                       # Time in different power states
system.mem_ctrls.rank1.memoryStateTime::ACT    528495353                       # Time in different power states
system.mem_ctrls.rank1.memoryStateTime::ACT_PDN            0                       # Time in different power states
system.mem_ctrls.rank0.actEnergy              7411320                       # Energy for activate commands per rank (pJ)
system.mem_ctrls.rank0.preEnergy              3943005                       # Energy for precharge commands per rank (pJ)
system.mem_ctrls.rank0.readEnergy            10917060                       # Energy for read commands per rank (pJ)
system.mem_ctrls.rank0.writeEnergy            5501880                       # Energy for write commands per rank (pJ)
system.mem_ctrls.rank0.refreshEnergy     400130640.000000                       # Energy for refresh commands per rank (pJ)
system.mem_ctrls.rank0.actBackEnergy        345173190                       # Energy for active background per rank (pJ)
system.mem_ctrls.rank0.preBackEnergy       1655447040                       # Energy for precharge background per rank (pJ)
system.mem_ctrls.rank0.actPowerDownEnergy            0                       # Energy for active power-down per rank (pJ)
system.mem_ctrls.rank0.prePowerDownEnergy            0                       # Energy for precharge power-down per rank (pJ)
system.mem_ctrls.rank0.selfRefreshEnergy            0                       # Energy for self refresh per rank (pJ)
system.mem_ctrls.rank0.totalEnergy         2428524135                       # Total energy per rank (pJ)
system.mem_ctrls.rank0.averagePower        479.186094                       # Core power per rank (mW)
system.mem_ctrls.rank0.totalIdleTime                0                       # Total Idle time Per DRAM Rank
system.mem_ctrls.rank0.memoryStateTime::IDLE   4299653358                       # Time in different power states
system.mem_ctrls.rank0.memoryStateTime::REF    169260000                       # Time in different power states
system.mem_ctrls.rank0.memoryStateTime::SREF            0                       # Time in different power states
system.mem_ctrls.rank0.memoryStateTime::PRE_PDN            0                       # Time in different power states
system.mem_ctrls.rank0.memoryStateTime::ACT    599105448                       # Time in different power states
system.mem_ctrls.rank0.memoryStateTime::ACT_PDN            0                       # Time in different power states
system.mem_ctrls.power_state.pwrStateResidencyTicks::UNDEFINED   5068018806                       # Cumulative time (in ticks) in various power states
system.iobus.trans_dist::ReadReq                  474                       # Transaction distribution
system.iobus.trans_dist::ReadResp                 474                       # Transaction distribution
system.iobus.trans_dist::WriteReq                 450                       # Transaction distribution
system.iobus.trans_dist::WriteResp                450                       # Transaction distribution
system.iobus.pkt_count_system.pc.south_bridge.io_apic.int_master::system.ruby.l1_cntrl0.sequencer.pio-slave-port          180                       # Packet count per connected master and slave (bytes)
system.iobus.pkt_count_system.pc.south_bridge.io_apic.int_master::total          180                       # Packet count per connected master and slave (bytes)
system.iobus.pkt_count_system.ruby.l1_cntrl0.sequencer.mem-master-port::system.pc.south_bridge.ide.pio          138                       # Packet count per connected master and slave (bytes)
system.iobus.pkt_count_system.ruby.l1_cntrl0.sequencer.mem-master-port::system.pc.south_bridge.io_apic.pio          406                       # Packet count per connected master and slave (bytes)
system.iobus.pkt_count_system.ruby.l1_cntrl0.sequencer.mem-master-port::system.pc.com_1.pio          942                       # Packet count per connected master and slave (bytes)
system.iobus.pkt_count_system.ruby.l1_cntrl0.sequencer.mem-master-port::system.ruby.l1_cntrl0.sequencer.pio-slave-port          182                       # Packet count per connected master and slave (bytes)
system.iobus.pkt_count_system.ruby.l1_cntrl0.sequencer.mem-master-port::total         1668                       # Packet count per connected master and slave (bytes)
system.iobus.pkt_count::total                    1848                       # Packet count per connected master and slave (bytes)
system.iobus.pkt_size_system.pc.south_bridge.io_apic.int_master::system.ruby.l1_cntrl0.sequencer.pio-slave-port          360                       # Cumulative packet size per connected master and slave (bytes)
system.iobus.pkt_size_system.pc.south_bridge.io_apic.int_master::total          360                       # Cumulative packet size per connected master and slave (bytes)
system.iobus.pkt_size_system.ruby.l1_cntrl0.sequencer.mem-master-port::system.pc.south_bridge.ide.pio           78                       # Cumulative packet size per connected master and slave (bytes)
system.iobus.pkt_size_system.ruby.l1_cntrl0.sequencer.mem-master-port::system.pc.south_bridge.io_apic.pio          812                       # Cumulative packet size per connected master and slave (bytes)
system.iobus.pkt_size_system.ruby.l1_cntrl0.sequencer.mem-master-port::system.pc.com_1.pio          471                       # Cumulative packet size per connected master and slave (bytes)
system.iobus.pkt_size_system.ruby.l1_cntrl0.sequencer.mem-master-port::system.ruby.l1_cntrl0.sequencer.pio-slave-port          364                       # Cumulative packet size per connected master and slave (bytes)
system.iobus.pkt_size_system.ruby.l1_cntrl0.sequencer.mem-master-port::total         1725                       # Cumulative packet size per connected master and slave (bytes)
system.iobus.pkt_size::total                     2085                       # Cumulative packet size per connected master and slave (bytes)
system.iobus.reqLayer2.occupancy               149947                       # Layer occupancy (ticks)
system.iobus.reqLayer2.utilization                0.0                       # Layer utilization (%)
system.iobus.reqLayer8.occupancy               384884                       # Layer occupancy (ticks)
system.iobus.reqLayer8.utilization                0.0                       # Layer utilization (%)
system.iobus.power_state.pwrStateResidencyTicks::UNDEFINED   5068018806                       # Cumulative time (in ticks) in various power states
system.iobus.reqLayer17.occupancy              439736                       # Layer occupancy (ticks)
system.iobus.reqLayer17.utilization               0.0                       # Layer utilization (%)
system.iobus.reqLayer12.occupancy              851944                       # Layer occupancy (ticks)
system.iobus.reqLayer12.utilization               0.0                       # Layer utilization (%)
system.iobus.respLayer0.occupancy              135365                       # Layer occupancy (ticks)
system.iobus.respLayer0.utilization               0.0                       # Layer utilization (%)
system.iobus.respLayer3.occupancy             1432544                       # Layer occupancy (ticks)
system.iobus.respLayer3.utilization               0.0                       # Layer utilization (%)
system.cpu_clk_domain.clock                       501                       # Clock period in ticks
system.cpu.dtb.walker.power_state.pwrStateResidencyTicks::UNDEFINED   5068018806                       # Cumulative time (in ticks) in various power states
system.cpu.interrupts.clk_domain.clock           8016                       # Clock period in ticks
system.cpu.itb.walker.power_state.pwrStateResidencyTicks::UNDEFINED   5068018806                       # Cumulative time (in ticks) in various power states
system.cpu.power_state.numTransitions              15                       # Number of power state transitions
system.cpu.power_state.ticksClkGated::samples            6                       # Distribution of time spent in the clock gated state
system.cpu.power_state.ticksClkGated::mean      1000000                       # Distribution of time spent in the clock gated state
system.cpu.power_state.ticksClkGated::1001-5e+10            6    100.00%    100.00% # Distribution of time spent in the clock gated state
system.cpu.power_state.ticksClkGated::min_value      1000000                       # Distribution of time spent in the clock gated state
system.cpu.power_state.ticksClkGated::max_value      1000000                       # Distribution of time spent in the clock gated state
system.cpu.power_state.ticksClkGated::total            6                       # Distribution of time spent in the clock gated state
system.cpu.power_state.pwrStateResidencyTicks::ON   5062018806                       # Cumulative time (in ticks) in various power states
system.cpu.power_state.pwrStateResidencyTicks::CLK_GATED      6000000                       # Cumulative time (in ticks) in various power states

---------- End Simulation Statistics   ----------
