
---------- Begin Simulation Statistics ----------
final_tick                               4932686598333                       # Number of ticks from beginning of simulation (restored from checkpoints and never reset)
host_inst_rate                              206193137                       # Simulator instruction rate (inst/s)
host_mem_usage                                1847224                       # Number of bytes of host memory used
host_op_rate                                516458637                       # Simulator op (including micro ops) rate (op/s)
host_seconds                                     1.25                       # Real time elapsed on the host
host_tick_rate                              347358589                       # Simulator tick rate (ticks/s)
sim_freq                                 1000000000000                       # Frequency of simulated ticks
sim_insts                                   257493018                       # Number of instructions simulated
sim_ops                                     644999816                       # Number of ops (including micro ops) simulated
sim_seconds                                  0.000434                       # Number of seconds simulated
sim_ticks                                   433818906                       # Number of ticks simulated
system.cpu0.Branches                            19587                       # Number of branches fetched
system.cpu0.Criticality                        839088                       # Criticality of the thread running on this core
system.cpu0.committedInsts                     104909                       # Number of instructions committed
system.cpu0.committedOps                       184964                       # Number of ops (including micro ops) committed
system.cpu0.dtb.rdAccesses                      22815                       # TLB accesses on read requests
system.cpu0.dtb.rdMisses                           21                       # TLB misses on read requests
system.cpu0.dtb.wrAccesses                      23925                       # TLB accesses on write requests
system.cpu0.dtb.wrMisses                           16                       # TLB misses on write requests
system.cpu0.idle_fraction                    0.445411                       # Percentage of idle cycles
system.cpu0.itb.rdAccesses                          0                       # TLB accesses on read requests
system.cpu0.itb.rdMisses                            0                       # TLB misses on read requests
system.cpu0.itb.wrAccesses                     141398                       # TLB accesses on write requests
system.cpu0.itb.wrMisses                           50                       # TLB misses on write requests
system.cpu0.kern.inst.arm                           0                       # number of arm instructions executed
system.cpu0.kern.inst.quiesce                       0                       # number of quiesce instructions executed
system.cpu0.not_idle_fraction                0.554589                       # Percentage of non-idle cycles
system.cpu0.numCycles                         1849321                       # number of cpu cycles simulated
system.cpu0.numWorkItemsCompleted                   0                       # number of work items this cpu completed
system.cpu0.numWorkItemsStarted                     0                       # number of work items this cpu started
system.cpu0.num_busy_cycles              1025613.208485                       # Number of busy cycles
system.cpu0.num_cc_register_reads               99225                       # number of times the CC registers were read
system.cpu0.num_cc_register_writes              67933                       # number of times the CC registers were written
system.cpu0.num_conditional_control_insts        14473                       # number of instructions that are conditional controls
system.cpu0.num_fp_alu_accesses                   223                       # Number of float alu accesses
system.cpu0.num_fp_insts                          223                       # number of float instructions
system.cpu0.num_fp_register_reads                 361                       # number of times the floating registers were read
system.cpu0.num_fp_register_writes                181                       # number of times the floating registers were written
system.cpu0.num_func_calls                       3697                       # number of times a function call or return occured
system.cpu0.num_idle_cycles              823707.791515                       # Number of idle cycles
system.cpu0.num_int_alu_accesses               182125                       # Number of integer alu accesses
system.cpu0.num_int_insts                      182125                       # number of integer instructions
system.cpu0.num_int_register_reads             379842                       # number of times the integer registers were read
system.cpu0.num_int_register_writes            139925                       # number of times the integer registers were written
system.cpu0.num_load_insts                      22794                       # Number of load instructions
system.cpu0.num_mem_refs                        46710                       # number of memory refs
system.cpu0.num_store_insts                     23916                       # Number of store instructions
system.cpu0.num_vec_alu_accesses                    0                       # Number of vector alu accesses
system.cpu0.num_vec_insts                           0                       # number of vector instructions
system.cpu0.num_vec_register_reads                  0                       # number of times the vector registers were read
system.cpu0.num_vec_register_writes                 0                       # number of times the vector registers were written
system.cpu0.op_class::No_OpClass                 1196      0.65%      0.65% # Class of executed instruction
system.cpu0.op_class::IntAlu                   136580     73.83%     74.48% # Class of executed instruction
system.cpu0.op_class::IntMult                     322      0.17%     74.66% # Class of executed instruction
system.cpu0.op_class::IntDiv                       19      0.01%     74.67% # Class of executed instruction
system.cpu0.op_class::FloatAdd                      2      0.00%     74.67% # Class of executed instruction
system.cpu0.op_class::FloatCmp                      0      0.00%     74.67% # Class of executed instruction
system.cpu0.op_class::FloatCvt                      0      0.00%     74.67% # Class of executed instruction
system.cpu0.op_class::FloatMult                     0      0.00%     74.67% # Class of executed instruction
system.cpu0.op_class::FloatMultAcc                  0      0.00%     74.67% # Class of executed instruction
system.cpu0.op_class::FloatDiv                      0      0.00%     74.67% # Class of executed instruction
system.cpu0.op_class::FloatMisc                     0      0.00%     74.67% # Class of executed instruction
system.cpu0.op_class::FloatSqrt                     0      0.00%     74.67% # Class of executed instruction
system.cpu0.op_class::SimdAdd                       8      0.00%     74.67% # Class of executed instruction
system.cpu0.op_class::SimdAddAcc                    0      0.00%     74.67% # Class of executed instruction
system.cpu0.op_class::SimdAlu                      32      0.02%     74.69% # Class of executed instruction
system.cpu0.op_class::SimdCmp                       0      0.00%     74.69% # Class of executed instruction
system.cpu0.op_class::SimdCvt                      50      0.03%     74.72% # Class of executed instruction
system.cpu0.op_class::SimdMisc                     49      0.03%     74.74% # Class of executed instruction
system.cpu0.op_class::SimdMult                      0      0.00%     74.74% # Class of executed instruction
system.cpu0.op_class::SimdMultAcc                   0      0.00%     74.74% # Class of executed instruction
system.cpu0.op_class::SimdShift                    13      0.01%     74.75% # Class of executed instruction
system.cpu0.op_class::SimdShiftAcc                  0      0.00%     74.75% # Class of executed instruction
system.cpu0.op_class::SimdDiv                       0      0.00%     74.75% # Class of executed instruction
system.cpu0.op_class::SimdSqrt                      0      0.00%     74.75% # Class of executed instruction
system.cpu0.op_class::SimdFloatAdd                  0      0.00%     74.75% # Class of executed instruction
system.cpu0.op_class::SimdFloatAlu                  0      0.00%     74.75% # Class of executed instruction
system.cpu0.op_class::SimdFloatCmp                  0      0.00%     74.75% # Class of executed instruction
system.cpu0.op_class::SimdFloatCvt                  0      0.00%     74.75% # Class of executed instruction
system.cpu0.op_class::SimdFloatDiv                  0      0.00%     74.75% # Class of executed instruction
system.cpu0.op_class::SimdFloatMisc                 0      0.00%     74.75% # Class of executed instruction
system.cpu0.op_class::SimdFloatMult                 0      0.00%     74.75% # Class of executed instruction
system.cpu0.op_class::SimdFloatMultAcc              0      0.00%     74.75% # Class of executed instruction
system.cpu0.op_class::SimdFloatSqrt                 0      0.00%     74.75% # Class of executed instruction
system.cpu0.op_class::SimdReduceAdd                 0      0.00%     74.75% # Class of executed instruction
system.cpu0.op_class::SimdReduceAlu                 0      0.00%     74.75% # Class of executed instruction
system.cpu0.op_class::SimdReduceCmp                 0      0.00%     74.75% # Class of executed instruction
system.cpu0.op_class::SimdFloatReduceAdd            0      0.00%     74.75% # Class of executed instruction
system.cpu0.op_class::SimdFloatReduceCmp            0      0.00%     74.75% # Class of executed instruction
system.cpu0.op_class::SimdAes                       0      0.00%     74.75% # Class of executed instruction
system.cpu0.op_class::SimdAesMix                    0      0.00%     74.75% # Class of executed instruction
system.cpu0.op_class::SimdSha1Hash                  0      0.00%     74.75% # Class of executed instruction
system.cpu0.op_class::SimdSha1Hash2                 0      0.00%     74.75% # Class of executed instruction
system.cpu0.op_class::SimdSha256Hash                0      0.00%     74.75% # Class of executed instruction
system.cpu0.op_class::SimdSha256Hash2               0      0.00%     74.75% # Class of executed instruction
system.cpu0.op_class::SimdShaSigma2                 0      0.00%     74.75% # Class of executed instruction
system.cpu0.op_class::SimdShaSigma3                 0      0.00%     74.75% # Class of executed instruction
system.cpu0.op_class::SimdPredAlu                   0      0.00%     74.75% # Class of executed instruction
system.cpu0.op_class::MemRead                   22746     12.30%     87.05% # Class of executed instruction
system.cpu0.op_class::MemWrite                  23916     12.93%     99.97% # Class of executed instruction
system.cpu0.op_class::FloatMemRead                 48      0.03%    100.00% # Class of executed instruction
system.cpu0.op_class::FloatMemWrite                 0      0.00%    100.00% # Class of executed instruction
system.cpu0.op_class::IprAccess                     0      0.00%    100.00% # Class of executed instruction
system.cpu0.op_class::InstPrefetch                  0      0.00%    100.00% # Class of executed instruction
system.cpu0.op_class::total                    184981                       # Class of executed instruction
system.cpu1.Branches 1 1
system.cpu1.Criticality                             0                       # Criticality of the thread running on this core
system.cpu1.committedInsts                          0                       # Number of instructions committed
system.cpu1.committedOps                            0                       # Number of ops (including micro ops) committed
system.cpu1.dtb.rdAccesses                          0                       # TLB accesses on read requests
system.cpu1.dtb.rdMisses                            0                       # TLB misses on read requests
system.cpu1.dtb.wrAccesses                          0                       # TLB accesses on write requests
system.cpu1.dtb.wrMisses                            0                       # TLB misses on write requests
system.cpu1.idle_fraction                           1                       # Percentage of idle cycles
system.cpu1.itb.rdAccesses                          0                       # TLB accesses on read requests
system.cpu1.itb.rdMisses                            0                       # TLB misses on read requests
system.cpu1.itb.wrAccesses                          0                       # TLB accesses on write requests
system.cpu1.itb.wrMisses                            0                       # TLB misses on write requests
system.cpu1.kern.inst.arm                           0                       # number of arm instructions executed
system.cpu1.kern.inst.quiesce                       0                       # number of quiesce instructions executed
system.cpu1.not_idle_fraction                       0                       # Percentage of non-idle cycles
system.cpu1.numCycles                               0                       # number of cpu cycles simulated
system.cpu1.numWorkItemsCompleted                   0                       # number of work items this cpu completed
system.cpu1.numWorkItemsStarted                     0                       # number of work items this cpu started
system.cpu1.num_busy_cycles                         0                       # Number of busy cycles
system.cpu1.num_conditional_control_insts            0                       # number of instructions that are conditional controls
system.cpu1.num_fp_alu_accesses                     0                       # Number of float alu accesses
system.cpu1.num_fp_insts                            0                       # number of float instructions
system.cpu1.num_fp_register_reads                   0                       # number of times the floating registers were read
system.cpu1.num_fp_register_writes                  0                       # number of times the floating registers were written
system.cpu1.num_func_calls                          0                       # number of times a function call or return occured
system.cpu1.num_idle_cycles                         0                       # Number of idle cycles
system.cpu1.num_int_alu_accesses                    0                       # Number of integer alu accesses
system.cpu1.num_int_insts                           0                       # number of integer instructions
system.cpu1.num_int_register_reads                  0                       # number of times the integer registers were read
system.cpu1.num_int_register_writes                 0                       # number of times the integer registers were written
system.cpu1.num_load_insts                          0                       # Number of load instructions
system.cpu1.num_mem_refs                            0                       # number of memory refs
system.cpu1.num_store_insts                         0                       # Number of store instructions
system.cpu1.num_vec_alu_accesses                    0                       # Number of vector alu accesses
system.cpu1.num_vec_insts                           0                       # number of vector instructions
system.cpu1.num_vec_register_reads                  0                       # number of times the vector registers were read
system.cpu1.num_vec_register_writes                 0                       # number of times the vector registers were written
system.cpu1.op_class::No_OpClass                    0                       # Class of executed instruction
system.cpu1.op_class::IntAlu                        0                       # Class of executed instruction
system.cpu1.op_class::IntMult                       0                       # Class of executed instruction
system.cpu1.op_class::IntDiv                        0                       # Class of executed instruction
system.cpu1.op_class::FloatAdd                      0                       # Class of executed instruction
system.cpu1.op_class::FloatCmp                      0                       # Class of executed instruction
system.cpu1.op_class::FloatCvt                      0                       # Class of executed instruction
system.cpu1.op_class::FloatMult                     0                       # Class of executed instruction
system.cpu1.op_class::FloatMultAcc                  0                       # Class of executed instruction
system.cpu1.op_class::FloatDiv                      0                       # Class of executed instruction
system.cpu1.op_class::FloatMisc                     0                       # Class of executed instruction
system.cpu1.op_class::FloatSqrt                     0                       # Class of executed instruction
system.cpu1.op_class::SimdAdd                       0                       # Class of executed instruction
system.cpu1.op_class::SimdAddAcc                    0                       # Class of executed instruction
system.cpu1.op_class::SimdAlu                       0                       # Class of executed instruction
system.cpu1.op_class::SimdCmp                       0                       # Class of executed instruction
system.cpu1.op_class::SimdCvt                       0                       # Class of executed instruction
system.cpu1.op_class::SimdMisc                      0                       # Class of executed instruction
system.cpu1.op_class::SimdMult                      0                       # Class of executed instruction
system.cpu1.op_class::SimdMultAcc                   0                       # Class of executed instruction
system.cpu1.op_class::SimdShift                     0                       # Class of executed instruction
system.cpu1.op_class::SimdShiftAcc                  0                       # Class of executed instruction
system.cpu1.op_class::SimdDiv                       0                       # Class of executed instruction
system.cpu1.op_class::SimdSqrt                      0                       # Class of executed instruction
system.cpu1.op_class::SimdFloatAdd                  0                       # Class of executed instruction
system.cpu1.op_class::SimdFloatAlu                  0                       # Class of executed instruction
system.cpu1.op_class::SimdFloatCmp                  0                       # Class of executed instruction
system.cpu1.op_class::SimdFloatCvt                  0                       # Class of executed instruction
system.cpu1.op_class::SimdFloatDiv                  0                       # Class of executed instruction
system.cpu1.op_class::SimdFloatMisc                 0                       # Class of executed instruction
system.cpu1.op_class::SimdFloatMult                 0                       # Class of executed instruction
system.cpu1.op_class::SimdFloatMultAcc              0                       # Class of executed instruction
system.cpu1.op_class::SimdFloatSqrt                 0                       # Class of executed instruction
system.cpu1.op_class::SimdReduceAdd                 0                       # Class of executed instruction
system.cpu1.op_class::SimdReduceAlu                 0                       # Class of executed instruction
system.cpu1.op_class::SimdReduceCmp                 0                       # Class of executed instruction
system.cpu1.op_class::SimdFloatReduceAdd            0                       # Class of executed instruction
system.cpu1.op_class::SimdFloatReduceCmp            0                       # Class of executed instruction
system.cpu1.op_class::SimdAes                       0                       # Class of executed instruction
system.cpu1.op_class::SimdAesMix                    0                       # Class of executed instruction
system.cpu1.op_class::SimdSha1Hash                  0                       # Class of executed instruction
system.cpu1.op_class::SimdSha1Hash2                 0                       # Class of executed instruction
system.cpu1.op_class::SimdSha256Hash                0                       # Class of executed instruction
system.cpu1.op_class::SimdSha256Hash2               0                       # Class of executed instruction
system.cpu1.op_class::SimdShaSigma2                 0                       # Class of executed instruction
system.cpu1.op_class::SimdShaSigma3                 0                       # Class of executed instruction
system.cpu1.op_class::SimdPredAlu                   0                       # Class of executed instruction
system.cpu1.op_class::MemRead                       0                       # Class of executed instruction
system.cpu1.op_class::MemWrite                      0                       # Class of executed instruction
system.cpu1.op_class::FloatMemRead                  0                       # Class of executed instruction
system.cpu1.op_class::FloatMemWrite                 0                       # Class of executed instruction
system.cpu1.op_class::IprAccess                     0                       # Class of executed instruction
system.cpu1.op_class::InstPrefetch                  0                       # Class of executed instruction
system.cpu1.op_class::total                         0                       # Class of executed instruction
system.cpu2.Branches 1 1
system.cpu2.Criticality                             0                       # Criticality of the thread running on this core
system.cpu2.committedInsts                          0                       # Number of instructions committed
system.cpu2.committedOps                            0                       # Number of ops (including micro ops) committed
system.cpu2.dtb.rdAccesses                          0                       # TLB accesses on read requests
system.cpu2.dtb.rdMisses                            0                       # TLB misses on read requests
system.cpu2.dtb.wrAccesses                          0                       # TLB accesses on write requests
system.cpu2.dtb.wrMisses                            0                       # TLB misses on write requests
system.cpu2.idle_fraction                           1                       # Percentage of idle cycles
system.cpu2.itb.rdAccesses                          0                       # TLB accesses on read requests
system.cpu2.itb.rdMisses                            0                       # TLB misses on read requests
system.cpu2.itb.wrAccesses                          0                       # TLB accesses on write requests
system.cpu2.itb.wrMisses                            0                       # TLB misses on write requests
system.cpu2.kern.inst.arm                           0                       # number of arm instructions executed
system.cpu2.kern.inst.quiesce                       0                       # number of quiesce instructions executed
system.cpu2.not_idle_fraction                       0                       # Percentage of non-idle cycles
system.cpu2.numCycles                               0                       # number of cpu cycles simulated
system.cpu2.numWorkItemsCompleted                   0                       # number of work items this cpu completed
system.cpu2.numWorkItemsStarted                     0                       # number of work items this cpu started
system.cpu2.num_busy_cycles                         0                       # Number of busy cycles
system.cpu2.num_conditional_control_insts            0                       # number of instructions that are conditional controls
system.cpu2.num_fp_alu_accesses                     0                       # Number of float alu accesses
system.cpu2.num_fp_insts                            0                       # number of float instructions
system.cpu2.num_fp_register_reads                   0                       # number of times the floating registers were read
system.cpu2.num_fp_register_writes                  0                       # number of times the floating registers were written
system.cpu2.num_func_calls                          0                       # number of times a function call or return occured
system.cpu2.num_idle_cycles                         0                       # Number of idle cycles
system.cpu2.num_int_alu_accesses                    0                       # Number of integer alu accesses
system.cpu2.num_int_insts                           0                       # number of integer instructions
system.cpu2.num_int_register_reads                  0                       # number of times the integer registers were read
system.cpu2.num_int_register_writes                 0                       # number of times the integer registers were written
system.cpu2.num_load_insts                          0                       # Number of load instructions
system.cpu2.num_mem_refs                            0                       # number of memory refs
system.cpu2.num_store_insts                         0                       # Number of store instructions
system.cpu2.num_vec_alu_accesses                    0                       # Number of vector alu accesses
system.cpu2.num_vec_insts                           0                       # number of vector instructions
system.cpu2.num_vec_register_reads                  0                       # number of times the vector registers were read
system.cpu2.num_vec_register_writes                 0                       # number of times the vector registers were written
system.cpu2.op_class::No_OpClass                    0                       # Class of executed instruction
system.cpu2.op_class::IntAlu                        0                       # Class of executed instruction
system.cpu2.op_class::IntMult                       0                       # Class of executed instruction
system.cpu2.op_class::IntDiv                        0                       # Class of executed instruction
system.cpu2.op_class::FloatAdd                      0                       # Class of executed instruction
system.cpu2.op_class::FloatCmp                      0                       # Class of executed instruction
system.cpu2.op_class::FloatCvt                      0                       # Class of executed instruction
system.cpu2.op_class::FloatMult                     0                       # Class of executed instruction
system.cpu2.op_class::FloatMultAcc                  0                       # Class of executed instruction
system.cpu2.op_class::FloatDiv                      0                       # Class of executed instruction
system.cpu2.op_class::FloatMisc                     0                       # Class of executed instruction
system.cpu2.op_class::FloatSqrt                     0                       # Class of executed instruction
system.cpu2.op_class::SimdAdd                       0                       # Class of executed instruction
system.cpu2.op_class::SimdAddAcc                    0                       # Class of executed instruction
system.cpu2.op_class::SimdAlu                       0                       # Class of executed instruction
system.cpu2.op_class::SimdCmp                       0                       # Class of executed instruction
system.cpu2.op_class::SimdCvt                       0                       # Class of executed instruction
system.cpu2.op_class::SimdMisc                      0                       # Class of executed instruction
system.cpu2.op_class::SimdMult                      0                       # Class of executed instruction
system.cpu2.op_class::SimdMultAcc                   0                       # Class of executed instruction
system.cpu2.op_class::SimdShift                     0                       # Class of executed instruction
system.cpu2.op_class::SimdShiftAcc                  0                       # Class of executed instruction
system.cpu2.op_class::SimdDiv                       0                       # Class of executed instruction
system.cpu2.op_class::SimdSqrt                      0                       # Class of executed instruction
system.cpu2.op_class::SimdFloatAdd                  0                       # Class of executed instruction
system.cpu2.op_class::SimdFloatAlu                  0                       # Class of executed instruction
system.cpu2.op_class::SimdFloatCmp                  0                       # Class of executed instruction
system.cpu2.op_class::SimdFloatCvt                  0                       # Class of executed instruction
system.cpu2.op_class::SimdFloatDiv                  0                       # Class of executed instruction
system.cpu2.op_class::SimdFloatMisc                 0                       # Class of executed instruction
system.cpu2.op_class::SimdFloatMult                 0                       # Class of executed instruction
system.cpu2.op_class::SimdFloatMultAcc              0                       # Class of executed instruction
system.cpu2.op_class::SimdFloatSqrt                 0                       # Class of executed instruction
system.cpu2.op_class::SimdReduceAdd                 0                       # Class of executed instruction
system.cpu2.op_class::SimdReduceAlu                 0                       # Class of executed instruction
system.cpu2.op_class::SimdReduceCmp                 0                       # Class of executed instruction
system.cpu2.op_class::SimdFloatReduceAdd            0                       # Class of executed instruction
system.cpu2.op_class::SimdFloatReduceCmp            0                       # Class of executed instruction
system.cpu2.op_class::SimdAes                       0                       # Class of executed instruction
system.cpu2.op_class::SimdAesMix                    0                       # Class of executed instruction
system.cpu2.op_class::SimdSha1Hash                  0                       # Class of executed instruction
system.cpu2.op_class::SimdSha1Hash2                 0                       # Class of executed instruction
system.cpu2.op_class::SimdSha256Hash                0                       # Class of executed instruction
system.cpu2.op_class::SimdSha256Hash2               0                       # Class of executed instruction
system.cpu2.op_class::SimdShaSigma2                 0                       # Class of executed instruction
system.cpu2.op_class::SimdShaSigma3                 0                       # Class of executed instruction
system.cpu2.op_class::SimdPredAlu                   0                       # Class of executed instruction
system.cpu2.op_class::MemRead                       0                       # Class of executed instruction
system.cpu2.op_class::MemWrite                      0                       # Class of executed instruction
system.cpu2.op_class::FloatMemRead                  0                       # Class of executed instruction
system.cpu2.op_class::FloatMemWrite                 0                       # Class of executed instruction
system.cpu2.op_class::IprAccess                     0                       # Class of executed instruction
system.cpu2.op_class::InstPrefetch                  0                       # Class of executed instruction
system.cpu2.op_class::total                         0                       # Class of executed instruction
system.cpu3.Branches 1 1
system.cpu3.Criticality                             0                       # Criticality of the thread running on this core
system.cpu3.committedInsts                          0                       # Number of instructions committed
system.cpu3.committedOps                            0                       # Number of ops (including micro ops) committed
system.cpu3.dtb.rdAccesses                          0                       # TLB accesses on read requests
system.cpu3.dtb.rdMisses                            0                       # TLB misses on read requests
system.cpu3.dtb.wrAccesses                          0                       # TLB accesses on write requests
system.cpu3.dtb.wrMisses                            0                       # TLB misses on write requests
system.cpu3.idle_fraction                           1                       # Percentage of idle cycles
system.cpu3.itb.rdAccesses                          0                       # TLB accesses on read requests
system.cpu3.itb.rdMisses                            0                       # TLB misses on read requests
system.cpu3.itb.wrAccesses                          0                       # TLB accesses on write requests
system.cpu3.itb.wrMisses                            0                       # TLB misses on write requests
system.cpu3.kern.inst.arm                           0                       # number of arm instructions executed
system.cpu3.kern.inst.quiesce                       0                       # number of quiesce instructions executed
system.cpu3.not_idle_fraction                       0                       # Percentage of non-idle cycles
system.cpu3.numCycles                               0                       # number of cpu cycles simulated
system.cpu3.numWorkItemsCompleted                   0                       # number of work items this cpu completed
system.cpu3.numWorkItemsStarted                     0                       # number of work items this cpu started
system.cpu3.num_busy_cycles                         0                       # Number of busy cycles
system.cpu3.num_conditional_control_insts            0                       # number of instructions that are conditional controls
system.cpu3.num_fp_alu_accesses                     0                       # Number of float alu accesses
system.cpu3.num_fp_insts                            0                       # number of float instructions
system.cpu3.num_fp_register_reads                   0                       # number of times the floating registers were read
system.cpu3.num_fp_register_writes                  0                       # number of times the floating registers were written
system.cpu3.num_func_calls                          0                       # number of times a function call or return occured
system.cpu3.num_idle_cycles                         0                       # Number of idle cycles
system.cpu3.num_int_alu_accesses                    0                       # Number of integer alu accesses
system.cpu3.num_int_insts                           0                       # number of integer instructions
system.cpu3.num_int_register_reads                  0                       # number of times the integer registers were read
system.cpu3.num_int_register_writes                 0                       # number of times the integer registers were written
system.cpu3.num_load_insts                          0                       # Number of load instructions
system.cpu3.num_mem_refs                            0                       # number of memory refs
system.cpu3.num_store_insts                         0                       # Number of store instructions
system.cpu3.num_vec_alu_accesses                    0                       # Number of vector alu accesses
system.cpu3.num_vec_insts                           0                       # number of vector instructions
system.cpu3.num_vec_register_reads                  0                       # number of times the vector registers were read
system.cpu3.num_vec_register_writes                 0                       # number of times the vector registers were written
system.cpu3.op_class::No_OpClass                    0                       # Class of executed instruction
system.cpu3.op_class::IntAlu                        0                       # Class of executed instruction
system.cpu3.op_class::IntMult                       0                       # Class of executed instruction
system.cpu3.op_class::IntDiv                        0                       # Class of executed instruction
system.cpu3.op_class::FloatAdd                      0                       # Class of executed instruction
system.cpu3.op_class::FloatCmp                      0                       # Class of executed instruction
system.cpu3.op_class::FloatCvt                      0                       # Class of executed instruction
system.cpu3.op_class::FloatMult                     0                       # Class of executed instruction
system.cpu3.op_class::FloatMultAcc                  0                       # Class of executed instruction
system.cpu3.op_class::FloatDiv                      0                       # Class of executed instruction
system.cpu3.op_class::FloatMisc                     0                       # Class of executed instruction
system.cpu3.op_class::FloatSqrt                     0                       # Class of executed instruction
system.cpu3.op_class::SimdAdd                       0                       # Class of executed instruction
system.cpu3.op_class::SimdAddAcc                    0                       # Class of executed instruction
system.cpu3.op_class::SimdAlu                       0                       # Class of executed instruction
system.cpu3.op_class::SimdCmp                       0                       # Class of executed instruction
system.cpu3.op_class::SimdCvt                       0                       # Class of executed instruction
system.cpu3.op_class::SimdMisc                      0                       # Class of executed instruction
system.cpu3.op_class::SimdMult                      0                       # Class of executed instruction
system.cpu3.op_class::SimdMultAcc                   0                       # Class of executed instruction
system.cpu3.op_class::SimdShift                     0                       # Class of executed instruction
system.cpu3.op_class::SimdShiftAcc                  0                       # Class of executed instruction
system.cpu3.op_class::SimdDiv                       0                       # Class of executed instruction
system.cpu3.op_class::SimdSqrt                      0                       # Class of executed instruction
system.cpu3.op_class::SimdFloatAdd                  0                       # Class of executed instruction
system.cpu3.op_class::SimdFloatAlu                  0                       # Class of executed instruction
system.cpu3.op_class::SimdFloatCmp                  0                       # Class of executed instruction
system.cpu3.op_class::SimdFloatCvt                  0                       # Class of executed instruction
system.cpu3.op_class::SimdFloatDiv                  0                       # Class of executed instruction
system.cpu3.op_class::SimdFloatMisc                 0                       # Class of executed instruction
system.cpu3.op_class::SimdFloatMult                 0                       # Class of executed instruction
system.cpu3.op_class::SimdFloatMultAcc              0                       # Class of executed instruction
system.cpu3.op_class::SimdFloatSqrt                 0                       # Class of executed instruction
system.cpu3.op_class::SimdReduceAdd                 0                       # Class of executed instruction
system.cpu3.op_class::SimdReduceAlu                 0                       # Class of executed instruction
system.cpu3.op_class::SimdReduceCmp                 0                       # Class of executed instruction
system.cpu3.op_class::SimdFloatReduceAdd            0                       # Class of executed instruction
system.cpu3.op_class::SimdFloatReduceCmp            0                       # Class of executed instruction
system.cpu3.op_class::SimdAes                       0                       # Class of executed instruction
system.cpu3.op_class::SimdAesMix                    0                       # Class of executed instruction
system.cpu3.op_class::SimdSha1Hash                  0                       # Class of executed instruction
system.cpu3.op_class::SimdSha1Hash2                 0                       # Class of executed instruction
system.cpu3.op_class::SimdSha256Hash                0                       # Class of executed instruction
system.cpu3.op_class::SimdSha256Hash2               0                       # Class of executed instruction
system.cpu3.op_class::SimdShaSigma2                 0                       # Class of executed instruction
system.cpu3.op_class::SimdShaSigma3                 0                       # Class of executed instruction
system.cpu3.op_class::SimdPredAlu                   0                       # Class of executed instruction
system.cpu3.op_class::MemRead                       0                       # Class of executed instruction
system.cpu3.op_class::MemWrite                      0                       # Class of executed instruction
system.cpu3.op_class::FloatMemRead                  0                       # Class of executed instruction
system.cpu3.op_class::FloatMemWrite                 0                       # Class of executed instruction
system.cpu3.op_class::IprAccess                     0                       # Class of executed instruction
system.cpu3.op_class::InstPrefetch                  0                       # Class of executed instruction
system.cpu3.op_class::total                         0                       # Class of executed instruction
system.cpu4.Branches                               99                       # Number of branches fetched
system.cpu4.Criticality                          3024                       # Criticality of the thread running on this core
system.cpu4.committedInsts                        379                       # Number of instructions committed
system.cpu4.committedOps                          894                       # Number of ops (including micro ops) committed
system.cpu4.dtb.rdAccesses                        122                       # TLB accesses on read requests
system.cpu4.dtb.rdMisses                            0                       # TLB misses on read requests
system.cpu4.dtb.wrAccesses                         66                       # TLB accesses on write requests
system.cpu4.dtb.wrMisses                            0                       # TLB misses on write requests
system.cpu4.idle_fraction                    0.997793                       # Percentage of idle cycles
system.cpu4.itb.rdAccesses                          0                       # TLB accesses on read requests
system.cpu4.itb.rdMisses                            0                       # TLB misses on read requests
system.cpu4.itb.wrAccesses                        479                       # TLB accesses on write requests
system.cpu4.itb.wrMisses                            0                       # TLB misses on write requests
system.cpu4.kern.inst.arm                           0                       # number of arm instructions executed
system.cpu4.kern.inst.quiesce                       0                       # number of quiesce instructions executed
system.cpu4.not_idle_fraction                0.002207                       # Percentage of non-idle cycles
system.cpu4.numCycles                          817876                       # number of cpu cycles simulated
system.cpu4.numWorkItemsCompleted                   0                       # number of work items this cpu completed
system.cpu4.numWorkItemsStarted                     0                       # number of work items this cpu started
system.cpu4.num_busy_cycles               1805.002696                       # Number of busy cycles
system.cpu4.num_cc_register_reads                 423                       # number of times the CC registers were read
system.cpu4.num_cc_register_writes                273                       # number of times the CC registers were written
system.cpu4.num_conditional_control_insts           58                       # number of instructions that are conditional controls
system.cpu4.num_fp_alu_accesses                     0                       # Number of float alu accesses
system.cpu4.num_fp_insts                            0                       # number of float instructions
system.cpu4.num_fp_register_reads                   0                       # number of times the floating registers were read
system.cpu4.num_fp_register_writes                  0                       # number of times the floating registers were written
system.cpu4.num_func_calls                         28                       # number of times a function call or return occured
system.cpu4.num_idle_cycles              816070.997304                       # Number of idle cycles
system.cpu4.num_int_alu_accesses                  865                       # Number of integer alu accesses
system.cpu4.num_int_insts                         865                       # number of integer instructions
system.cpu4.num_int_register_reads               1644                       # number of times the integer registers were read
system.cpu4.num_int_register_writes               715                       # number of times the integer registers were written
system.cpu4.num_load_insts                        120                       # Number of load instructions
system.cpu4.num_mem_refs                          184                       # number of memory refs
system.cpu4.num_store_insts                        64                       # Number of store instructions
system.cpu4.num_vec_alu_accesses                    0                       # Number of vector alu accesses
system.cpu4.num_vec_insts                           0                       # number of vector instructions
system.cpu4.num_vec_register_reads                  0                       # number of times the vector registers were read
system.cpu4.num_vec_register_writes                 0                       # number of times the vector registers were written
system.cpu4.op_class::No_OpClass                   15      1.68%      1.68% # Class of executed instruction
system.cpu4.op_class::IntAlu                      697     77.96%     79.64% # Class of executed instruction
system.cpu4.op_class::IntMult                       0      0.00%     79.64% # Class of executed instruction
system.cpu4.op_class::IntDiv                        0      0.00%     79.64% # Class of executed instruction
system.cpu4.op_class::FloatAdd                      0      0.00%     79.64% # Class of executed instruction
system.cpu4.op_class::FloatCmp                      0      0.00%     79.64% # Class of executed instruction
system.cpu4.op_class::FloatCvt                      0      0.00%     79.64% # Class of executed instruction
system.cpu4.op_class::FloatMult                     0      0.00%     79.64% # Class of executed instruction
system.cpu4.op_class::FloatMultAcc                  0      0.00%     79.64% # Class of executed instruction
system.cpu4.op_class::FloatDiv                      0      0.00%     79.64% # Class of executed instruction
system.cpu4.op_class::FloatMisc                     0      0.00%     79.64% # Class of executed instruction
system.cpu4.op_class::FloatSqrt                     0      0.00%     79.64% # Class of executed instruction
system.cpu4.op_class::SimdAdd                       0      0.00%     79.64% # Class of executed instruction
system.cpu4.op_class::SimdAddAcc                    0      0.00%     79.64% # Class of executed instruction
system.cpu4.op_class::SimdAlu                       0      0.00%     79.64% # Class of executed instruction
system.cpu4.op_class::SimdCmp                       0      0.00%     79.64% # Class of executed instruction
system.cpu4.op_class::SimdCvt                       0      0.00%     79.64% # Class of executed instruction
system.cpu4.op_class::SimdMisc                      0      0.00%     79.64% # Class of executed instruction
system.cpu4.op_class::SimdMult                      0      0.00%     79.64% # Class of executed instruction
system.cpu4.op_class::SimdMultAcc                   0      0.00%     79.64% # Class of executed instruction
system.cpu4.op_class::SimdShift                     0      0.00%     79.64% # Class of executed instruction
system.cpu4.op_class::SimdShiftAcc                  0      0.00%     79.64% # Class of executed instruction
system.cpu4.op_class::SimdDiv                       0      0.00%     79.64% # Class of executed instruction
system.cpu4.op_class::SimdSqrt                      0      0.00%     79.64% # Class of executed instruction
system.cpu4.op_class::SimdFloatAdd                  0      0.00%     79.64% # Class of executed instruction
system.cpu4.op_class::SimdFloatAlu                  0      0.00%     79.64% # Class of executed instruction
system.cpu4.op_class::SimdFloatCmp                  0      0.00%     79.64% # Class of executed instruction
system.cpu4.op_class::SimdFloatCvt                  0      0.00%     79.64% # Class of executed instruction
system.cpu4.op_class::SimdFloatDiv                  0      0.00%     79.64% # Class of executed instruction
system.cpu4.op_class::SimdFloatMisc                 0      0.00%     79.64% # Class of executed instruction
system.cpu4.op_class::SimdFloatMult                 0      0.00%     79.64% # Class of executed instruction
system.cpu4.op_class::SimdFloatMultAcc              0      0.00%     79.64% # Class of executed instruction
system.cpu4.op_class::SimdFloatSqrt                 0      0.00%     79.64% # Class of executed instruction
system.cpu4.op_class::SimdReduceAdd                 0      0.00%     79.64% # Class of executed instruction
system.cpu4.op_class::SimdReduceAlu                 0      0.00%     79.64% # Class of executed instruction
system.cpu4.op_class::SimdReduceCmp                 0      0.00%     79.64% # Class of executed instruction
system.cpu4.op_class::SimdFloatReduceAdd            0      0.00%     79.64% # Class of executed instruction
system.cpu4.op_class::SimdFloatReduceCmp            0      0.00%     79.64% # Class of executed instruction
system.cpu4.op_class::SimdAes                       0      0.00%     79.64% # Class of executed instruction
system.cpu4.op_class::SimdAesMix                    0      0.00%     79.64% # Class of executed instruction
system.cpu4.op_class::SimdSha1Hash                  0      0.00%     79.64% # Class of executed instruction
system.cpu4.op_class::SimdSha1Hash2                 0      0.00%     79.64% # Class of executed instruction
system.cpu4.op_class::SimdSha256Hash                0      0.00%     79.64% # Class of executed instruction
system.cpu4.op_class::SimdSha256Hash2               0      0.00%     79.64% # Class of executed instruction
system.cpu4.op_class::SimdShaSigma2                 0      0.00%     79.64% # Class of executed instruction
system.cpu4.op_class::SimdShaSigma3                 0      0.00%     79.64% # Class of executed instruction
system.cpu4.op_class::SimdPredAlu                   0      0.00%     79.64% # Class of executed instruction
system.cpu4.op_class::MemRead                     118     13.20%     92.84% # Class of executed instruction
system.cpu4.op_class::MemWrite                     64      7.16%    100.00% # Class of executed instruction
system.cpu4.op_class::FloatMemRead                  0      0.00%    100.00% # Class of executed instruction
system.cpu4.op_class::FloatMemWrite                 0      0.00%    100.00% # Class of executed instruction
system.cpu4.op_class::IprAccess                     0      0.00%    100.00% # Class of executed instruction
system.cpu4.op_class::InstPrefetch                  0      0.00%    100.00% # Class of executed instruction
system.cpu4.op_class::total                       894                       # Class of executed instruction
system.cpu5.Branches 1 1
system.cpu5.Criticality                             0                       # Criticality of the thread running on this core
system.cpu5.committedInsts                          0                       # Number of instructions committed
system.cpu5.committedOps                            0                       # Number of ops (including micro ops) committed
system.cpu5.dtb.rdAccesses                          0                       # TLB accesses on read requests
system.cpu5.dtb.rdMisses                            0                       # TLB misses on read requests
system.cpu5.dtb.wrAccesses                          0                       # TLB accesses on write requests
system.cpu5.dtb.wrMisses                            0                       # TLB misses on write requests
system.cpu5.idle_fraction                           1                       # Percentage of idle cycles
system.cpu5.itb.rdAccesses                          0                       # TLB accesses on read requests
system.cpu5.itb.rdMisses                            0                       # TLB misses on read requests
system.cpu5.itb.wrAccesses                          0                       # TLB accesses on write requests
system.cpu5.itb.wrMisses                            0                       # TLB misses on write requests
system.cpu5.kern.inst.arm                           0                       # number of arm instructions executed
system.cpu5.kern.inst.quiesce                       0                       # number of quiesce instructions executed
system.cpu5.not_idle_fraction                       0                       # Percentage of non-idle cycles
system.cpu5.numCycles                               0                       # number of cpu cycles simulated
system.cpu5.numWorkItemsCompleted                   0                       # number of work items this cpu completed
system.cpu5.numWorkItemsStarted                     0                       # number of work items this cpu started
system.cpu5.num_busy_cycles                         0                       # Number of busy cycles
system.cpu5.num_conditional_control_insts            0                       # number of instructions that are conditional controls
system.cpu5.num_fp_alu_accesses                     0                       # Number of float alu accesses
system.cpu5.num_fp_insts                            0                       # number of float instructions
system.cpu5.num_fp_register_reads                   0                       # number of times the floating registers were read
system.cpu5.num_fp_register_writes                  0                       # number of times the floating registers were written
system.cpu5.num_func_calls                          0                       # number of times a function call or return occured
system.cpu5.num_idle_cycles                         0                       # Number of idle cycles
system.cpu5.num_int_alu_accesses                    0                       # Number of integer alu accesses
system.cpu5.num_int_insts                           0                       # number of integer instructions
system.cpu5.num_int_register_reads                  0                       # number of times the integer registers were read
system.cpu5.num_int_register_writes                 0                       # number of times the integer registers were written
system.cpu5.num_load_insts                          0                       # Number of load instructions
system.cpu5.num_mem_refs                            0                       # number of memory refs
system.cpu5.num_store_insts                         0                       # Number of store instructions
system.cpu5.num_vec_alu_accesses                    0                       # Number of vector alu accesses
system.cpu5.num_vec_insts                           0                       # number of vector instructions
system.cpu5.num_vec_register_reads                  0                       # number of times the vector registers were read
system.cpu5.num_vec_register_writes                 0                       # number of times the vector registers were written
system.cpu5.op_class::No_OpClass                    0                       # Class of executed instruction
system.cpu5.op_class::IntAlu                        0                       # Class of executed instruction
system.cpu5.op_class::IntMult                       0                       # Class of executed instruction
system.cpu5.op_class::IntDiv                        0                       # Class of executed instruction
system.cpu5.op_class::FloatAdd                      0                       # Class of executed instruction
system.cpu5.op_class::FloatCmp                      0                       # Class of executed instruction
system.cpu5.op_class::FloatCvt                      0                       # Class of executed instruction
system.cpu5.op_class::FloatMult                     0                       # Class of executed instruction
system.cpu5.op_class::FloatMultAcc                  0                       # Class of executed instruction
system.cpu5.op_class::FloatDiv                      0                       # Class of executed instruction
system.cpu5.op_class::FloatMisc                     0                       # Class of executed instruction
system.cpu5.op_class::FloatSqrt                     0                       # Class of executed instruction
system.cpu5.op_class::SimdAdd                       0                       # Class of executed instruction
system.cpu5.op_class::SimdAddAcc                    0                       # Class of executed instruction
system.cpu5.op_class::SimdAlu                       0                       # Class of executed instruction
system.cpu5.op_class::SimdCmp                       0                       # Class of executed instruction
system.cpu5.op_class::SimdCvt                       0                       # Class of executed instruction
system.cpu5.op_class::SimdMisc                      0                       # Class of executed instruction
system.cpu5.op_class::SimdMult                      0                       # Class of executed instruction
system.cpu5.op_class::SimdMultAcc                   0                       # Class of executed instruction
system.cpu5.op_class::SimdShift                     0                       # Class of executed instruction
system.cpu5.op_class::SimdShiftAcc                  0                       # Class of executed instruction
system.cpu5.op_class::SimdDiv                       0                       # Class of executed instruction
system.cpu5.op_class::SimdSqrt                      0                       # Class of executed instruction
system.cpu5.op_class::SimdFloatAdd                  0                       # Class of executed instruction
system.cpu5.op_class::SimdFloatAlu                  0                       # Class of executed instruction
system.cpu5.op_class::SimdFloatCmp                  0                       # Class of executed instruction
system.cpu5.op_class::SimdFloatCvt                  0                       # Class of executed instruction
system.cpu5.op_class::SimdFloatDiv                  0                       # Class of executed instruction
system.cpu5.op_class::SimdFloatMisc                 0                       # Class of executed instruction
system.cpu5.op_class::SimdFloatMult                 0                       # Class of executed instruction
system.cpu5.op_class::SimdFloatMultAcc              0                       # Class of executed instruction
system.cpu5.op_class::SimdFloatSqrt                 0                       # Class of executed instruction
system.cpu5.op_class::SimdReduceAdd                 0                       # Class of executed instruction
system.cpu5.op_class::SimdReduceAlu                 0                       # Class of executed instruction
system.cpu5.op_class::SimdReduceCmp                 0                       # Class of executed instruction
system.cpu5.op_class::SimdFloatReduceAdd            0                       # Class of executed instruction
system.cpu5.op_class::SimdFloatReduceCmp            0                       # Class of executed instruction
system.cpu5.op_class::SimdAes                       0                       # Class of executed instruction
system.cpu5.op_class::SimdAesMix                    0                       # Class of executed instruction
system.cpu5.op_class::SimdSha1Hash                  0                       # Class of executed instruction
system.cpu5.op_class::SimdSha1Hash2                 0                       # Class of executed instruction
system.cpu5.op_class::SimdSha256Hash                0                       # Class of executed instruction
system.cpu5.op_class::SimdSha256Hash2               0                       # Class of executed instruction
system.cpu5.op_class::SimdShaSigma2                 0                       # Class of executed instruction
system.cpu5.op_class::SimdShaSigma3                 0                       # Class of executed instruction
system.cpu5.op_class::SimdPredAlu                   0                       # Class of executed instruction
system.cpu5.op_class::MemRead                       0                       # Class of executed instruction
system.cpu5.op_class::MemWrite                      0                       # Class of executed instruction
system.cpu5.op_class::FloatMemRead                  0                       # Class of executed instruction
system.cpu5.op_class::FloatMemWrite                 0                       # Class of executed instruction
system.cpu5.op_class::IprAccess                     0                       # Class of executed instruction
system.cpu5.op_class::InstPrefetch                  0                       # Class of executed instruction
system.cpu5.op_class::total                         0                       # Class of executed instruction
system.cpu6.Branches                            12716                       # Number of branches fetched
system.cpu6.Criticality                        533336                       # Criticality of the thread running on this core
system.cpu6.committedInsts                      66673                       # Number of instructions committed
system.cpu6.committedOps                       124377                       # Number of ops (including micro ops) committed
system.cpu6.dtb.rdAccesses                      18213                       # TLB accesses on read requests
system.cpu6.dtb.rdMisses                           22                       # TLB misses on read requests
system.cpu6.dtb.wrAccesses                      16805                       # TLB accesses on write requests
system.cpu6.dtb.wrMisses                           10                       # TLB misses on write requests
system.cpu6.idle_fraction                    0.622616                       # Percentage of idle cycles
system.cpu6.itb.rdAccesses                          0                       # TLB accesses on read requests
system.cpu6.itb.rdMisses                            0                       # TLB misses on read requests
system.cpu6.itb.wrAccesses                      88854                       # TLB accesses on write requests
system.cpu6.itb.wrMisses                           43                       # TLB misses on write requests
system.cpu6.kern.inst.arm                           0                       # number of arm instructions executed
system.cpu6.kern.inst.quiesce                       0                       # number of quiesce instructions executed
system.cpu6.not_idle_fraction                0.377384                       # Percentage of non-idle cycles
system.cpu6.numCycles                          326779                       # number of cpu cycles simulated
system.cpu6.numWorkItemsCompleted                   0                       # number of work items this cpu completed
system.cpu6.numWorkItemsStarted                     0                       # number of work items this cpu started
system.cpu6.num_busy_cycles              123321.139471                       # Number of busy cycles
system.cpu6.num_cc_register_reads               65540                       # number of times the CC registers were read
system.cpu6.num_cc_register_writes              39105                       # number of times the CC registers were written
system.cpu6.num_conditional_control_insts         9336                       # number of instructions that are conditional controls
system.cpu6.num_fp_alu_accesses                  1143                       # Number of float alu accesses
system.cpu6.num_fp_insts                         1143                       # number of float instructions
system.cpu6.num_fp_register_reads                1937                       # number of times the floating registers were read
system.cpu6.num_fp_register_writes                893                       # number of times the floating registers were written
system.cpu6.num_func_calls                       2409                       # number of times a function call or return occured
system.cpu6.num_idle_cycles              203457.860529                       # Number of idle cycles
system.cpu6.num_int_alu_accesses               120616                       # Number of integer alu accesses
system.cpu6.num_int_insts                      120616                       # number of integer instructions
system.cpu6.num_int_register_reads             257292                       # number of times the integer registers were read
system.cpu6.num_int_register_writes             92802                       # number of times the integer registers were written
system.cpu6.num_load_insts                      18190                       # Number of load instructions
system.cpu6.num_mem_refs                        34984                       # number of memory refs
system.cpu6.num_store_insts                     16794                       # Number of store instructions
system.cpu6.num_vec_alu_accesses                    0                       # Number of vector alu accesses
system.cpu6.num_vec_insts                           0                       # number of vector instructions
system.cpu6.num_vec_register_reads                  0                       # number of times the vector registers were read
system.cpu6.num_vec_register_writes                 0                       # number of times the vector registers were written
system.cpu6.op_class::No_OpClass                 1785      1.44%      1.44% # Class of executed instruction
system.cpu6.op_class::IntAlu                    86495     69.54%     70.97% # Class of executed instruction
system.cpu6.op_class::IntMult                     245      0.20%     71.17% # Class of executed instruction
system.cpu6.op_class::IntDiv                       38      0.03%     71.20% # Class of executed instruction
system.cpu6.op_class::FloatAdd                     23      0.02%     71.22% # Class of executed instruction
system.cpu6.op_class::FloatCmp                      0      0.00%     71.22% # Class of executed instruction
system.cpu6.op_class::FloatCvt                      0      0.00%     71.22% # Class of executed instruction
system.cpu6.op_class::FloatMult                     0      0.00%     71.22% # Class of executed instruction
system.cpu6.op_class::FloatMultAcc                  0      0.00%     71.22% # Class of executed instruction
system.cpu6.op_class::FloatDiv                      0      0.00%     71.22% # Class of executed instruction
system.cpu6.op_class::FloatMisc                     0      0.00%     71.22% # Class of executed instruction
system.cpu6.op_class::FloatSqrt                     0      0.00%     71.22% # Class of executed instruction
system.cpu6.op_class::SimdAdd                      30      0.02%     71.24% # Class of executed instruction
system.cpu6.op_class::SimdAddAcc                    0      0.00%     71.24% # Class of executed instruction
system.cpu6.op_class::SimdAlu                      81      0.07%     71.31% # Class of executed instruction
system.cpu6.op_class::SimdCmp                       0      0.00%     71.31% # Class of executed instruction
system.cpu6.op_class::SimdCvt                     280      0.23%     71.53% # Class of executed instruction
system.cpu6.op_class::SimdMisc                    411      0.33%     71.86% # Class of executed instruction
system.cpu6.op_class::SimdMult                      0      0.00%     71.86% # Class of executed instruction
system.cpu6.op_class::SimdMultAcc                   0      0.00%     71.86% # Class of executed instruction
system.cpu6.op_class::SimdShift                    15      0.01%     71.88% # Class of executed instruction
system.cpu6.op_class::SimdShiftAcc                  0      0.00%     71.88% # Class of executed instruction
system.cpu6.op_class::SimdDiv                       0      0.00%     71.88% # Class of executed instruction
system.cpu6.op_class::SimdSqrt                      0      0.00%     71.88% # Class of executed instruction
system.cpu6.op_class::SimdFloatAdd                  0      0.00%     71.88% # Class of executed instruction
system.cpu6.op_class::SimdFloatAlu                  0      0.00%     71.88% # Class of executed instruction
system.cpu6.op_class::SimdFloatCmp                  0      0.00%     71.88% # Class of executed instruction
system.cpu6.op_class::SimdFloatCvt                  0      0.00%     71.88% # Class of executed instruction
system.cpu6.op_class::SimdFloatDiv                  0      0.00%     71.88% # Class of executed instruction
system.cpu6.op_class::SimdFloatMisc                 0      0.00%     71.88% # Class of executed instruction
system.cpu6.op_class::SimdFloatMult                 0      0.00%     71.88% # Class of executed instruction
system.cpu6.op_class::SimdFloatMultAcc              0      0.00%     71.88% # Class of executed instruction
system.cpu6.op_class::SimdFloatSqrt                 0      0.00%     71.88% # Class of executed instruction
system.cpu6.op_class::SimdReduceAdd                 0      0.00%     71.88% # Class of executed instruction
system.cpu6.op_class::SimdReduceAlu                 0      0.00%     71.88% # Class of executed instruction
system.cpu6.op_class::SimdReduceCmp                 0      0.00%     71.88% # Class of executed instruction
system.cpu6.op_class::SimdFloatReduceAdd            0      0.00%     71.88% # Class of executed instruction
system.cpu6.op_class::SimdFloatReduceCmp            0      0.00%     71.88% # Class of executed instruction
system.cpu6.op_class::SimdAes                       0      0.00%     71.88% # Class of executed instruction
system.cpu6.op_class::SimdAesMix                    0      0.00%     71.88% # Class of executed instruction
system.cpu6.op_class::SimdSha1Hash                  0      0.00%     71.88% # Class of executed instruction
system.cpu6.op_class::SimdSha1Hash2                 0      0.00%     71.88% # Class of executed instruction
system.cpu6.op_class::SimdSha256Hash                0      0.00%     71.88% # Class of executed instruction
system.cpu6.op_class::SimdSha256Hash2               0      0.00%     71.88% # Class of executed instruction
system.cpu6.op_class::SimdShaSigma2                 0      0.00%     71.88% # Class of executed instruction
system.cpu6.op_class::SimdShaSigma3                 0      0.00%     71.88% # Class of executed instruction
system.cpu6.op_class::SimdPredAlu                   0      0.00%     71.88% # Class of executed instruction
system.cpu6.op_class::MemRead                   18018     14.49%     86.36% # Class of executed instruction
system.cpu6.op_class::MemWrite                  16794     13.50%     99.86% # Class of executed instruction
system.cpu6.op_class::FloatMemRead                170      0.14%    100.00% # Class of executed instruction
system.cpu6.op_class::FloatMemWrite                 0      0.00%    100.00% # Class of executed instruction
system.cpu6.op_class::IprAccess                     0      0.00%    100.00% # Class of executed instruction
system.cpu6.op_class::InstPrefetch                  0      0.00%    100.00% # Class of executed instruction
system.cpu6.op_class::total                    124385                       # Class of executed instruction
system.cpu7.Branches                             6302                       # Number of branches fetched
system.cpu7.Criticality                        274984                       # Criticality of the thread running on this core
system.cpu7.committedInsts                      34387                       # Number of instructions committed
system.cpu7.committedOps                        61656                       # Number of ops (including micro ops) committed
system.cpu7.dtb.rdAccesses                      10204                       # TLB accesses on read requests
system.cpu7.dtb.rdMisses                            9                       # TLB misses on read requests
system.cpu7.dtb.wrAccesses                       8067                       # TLB accesses on write requests
system.cpu7.dtb.wrMisses                           14                       # TLB misses on write requests
system.cpu7.idle_fraction                    0.816350                       # Percentage of idle cycles
system.cpu7.itb.rdAccesses                          0                       # TLB accesses on read requests
system.cpu7.itb.rdMisses                            0                       # TLB misses on read requests
system.cpu7.itb.wrAccesses                      45581                       # TLB accesses on write requests
system.cpu7.itb.wrMisses                           30                       # TLB misses on write requests
system.cpu7.kern.inst.arm                           0                       # number of arm instructions executed
system.cpu7.kern.inst.quiesce                       0                       # number of quiesce instructions executed
system.cpu7.not_idle_fraction                0.183650                       # Percentage of non-idle cycles
system.cpu7.numCycles                         1544337                       # number of cpu cycles simulated
system.cpu7.numWorkItemsCompleted                   0                       # number of work items this cpu completed
system.cpu7.numWorkItemsStarted                     0                       # number of work items this cpu started
system.cpu7.num_busy_cycles              283618.140542                       # Number of busy cycles
system.cpu7.num_cc_register_reads               29696                       # number of times the CC registers were read
system.cpu7.num_cc_register_writes              18435                       # number of times the CC registers were written
system.cpu7.num_conditional_control_insts         4077                       # number of instructions that are conditional controls
system.cpu7.num_fp_alu_accesses                    38                       # Number of float alu accesses
system.cpu7.num_fp_insts                           38                       # number of float instructions
system.cpu7.num_fp_register_reads                  63                       # number of times the floating registers were read
system.cpu7.num_fp_register_writes                 31                       # number of times the floating registers were written
system.cpu7.num_func_calls                       1571                       # number of times a function call or return occured
system.cpu7.num_idle_cycles              1260718.859458                       # Number of idle cycles
system.cpu7.num_int_alu_accesses                60567                       # Number of integer alu accesses
system.cpu7.num_int_insts                       60567                       # number of integer instructions
system.cpu7.num_int_register_reads             131144                       # number of times the integer registers were read
system.cpu7.num_int_register_writes             46696                       # number of times the integer registers were written
system.cpu7.num_load_insts                      10194                       # Number of load instructions
system.cpu7.num_mem_refs                        18244                       # number of memory refs
system.cpu7.num_store_insts                      8050                       # Number of store instructions
system.cpu7.num_vec_alu_accesses                    0                       # Number of vector alu accesses
system.cpu7.num_vec_insts                           0                       # number of vector instructions
system.cpu7.num_vec_register_reads                  0                       # number of times the vector registers were read
system.cpu7.num_vec_register_writes                 0                       # number of times the vector registers were written
system.cpu7.op_class::No_OpClass                  450      0.73%      0.73% # Class of executed instruction
system.cpu7.op_class::IntAlu                    42854     69.49%     70.22% # Class of executed instruction
system.cpu7.op_class::IntMult                      96      0.16%     70.38% # Class of executed instruction
system.cpu7.op_class::IntDiv                        0      0.00%     70.38% # Class of executed instruction
system.cpu7.op_class::FloatAdd                      1      0.00%     70.38% # Class of executed instruction
system.cpu7.op_class::FloatCmp                      0      0.00%     70.38% # Class of executed instruction
system.cpu7.op_class::FloatCvt                      0      0.00%     70.38% # Class of executed instruction
system.cpu7.op_class::FloatMult                     0      0.00%     70.38% # Class of executed instruction
system.cpu7.op_class::FloatMultAcc                  0      0.00%     70.38% # Class of executed instruction
system.cpu7.op_class::FloatDiv                      0      0.00%     70.38% # Class of executed instruction
system.cpu7.op_class::FloatMisc                     0      0.00%     70.38% # Class of executed instruction
system.cpu7.op_class::FloatSqrt                     0      0.00%     70.38% # Class of executed instruction
system.cpu7.op_class::SimdAdd                       2      0.00%     70.38% # Class of executed instruction
system.cpu7.op_class::SimdAddAcc                    0      0.00%     70.38% # Class of executed instruction
system.cpu7.op_class::SimdAlu                       4      0.01%     70.39% # Class of executed instruction
system.cpu7.op_class::SimdCmp                       0      0.00%     70.39% # Class of executed instruction
system.cpu7.op_class::SimdCvt                       8      0.01%     70.40% # Class of executed instruction
system.cpu7.op_class::SimdMisc                     13      0.02%     70.42% # Class of executed instruction
system.cpu7.op_class::SimdMult                      0      0.00%     70.42% # Class of executed instruction
system.cpu7.op_class::SimdMultAcc                   0      0.00%     70.42% # Class of executed instruction
system.cpu7.op_class::SimdShift                     0      0.00%     70.42% # Class of executed instruction
system.cpu7.op_class::SimdShiftAcc                  0      0.00%     70.42% # Class of executed instruction
system.cpu7.op_class::SimdDiv                       0      0.00%     70.42% # Class of executed instruction
system.cpu7.op_class::SimdSqrt                      0      0.00%     70.42% # Class of executed instruction
system.cpu7.op_class::SimdFloatAdd                  0      0.00%     70.42% # Class of executed instruction
[...]
system.iobus.trans_dist::WriteReq                 232                       # Transaction distribution
system.iobus.trans_dist::WriteResp                232                       # Transaction distribution
system.iobus.pkt_count_system.pc.south_bridge.io_apic.int_master::system.ruby.l1_cntrl0.sequencer.pio-slave-port            2                       # Packet count per connected master and slave (bytes)
system.iobus.pkt_count_system.pc.south_bridge.io_apic.int_master::system.ruby.l1_cntrl1.sequencer.pio-slave-port            2                       # Packet count per connected master and slave (bytes)
system.iobus.pkt_count_system.pc.south_bridge.io_apic.int_master::system.ruby.l1_cntrl2.sequencer.pio-slave-port            4                       # Packet count per connected master and slave (bytes)
system.iobus.pkt_count_system.pc.south_bridge.io_apic.int_master::system.ruby.l1_cntrl3.sequencer.pio-slave-port            4                       # Packet count per connected master and slave (bytes)
system.iobus.pkt_count_system.pc.south_bridge.io_apic.int_master::system.ruby.l1_cntrl4.sequencer.pio-slave-port            4                       # Packet count per connected master and slave (bytes)
system.iobus.pkt_count_system.pc.south_bridge.io_apic.int_master::system.ruby.l1_cntrl5.sequencer.pio-slave-port            2                       # Packet count per connected master and slave (bytes)
system.iobus.pkt_count_system.pc.south_bridge.io_apic.int_master::system.ruby.l1_cntrl6.sequencer.pio-slave-port            2                       # Packet count per connected master and slave (bytes)
system.iobus.pkt_count_system.pc.south_bridge.io_apic.int_master::system.ruby.l1_cntrl7.sequencer.pio-slave-port            2                       # Packet count per connected master and slave (bytes)
system.iobus.pkt_count_system.pc.south_bridge.io_apic.int_master::total           22                       # Packet count per connected master and slave (bytes)
system.iobus.pkt_count_system.ruby.l1_cntrl0.sequencer.mem-master-port::system.pc.south_bridge.ide.pio           12                       # Packet count per connected master and slave (bytes)
system.iobus.pkt_count_system.ruby.l1_cntrl0.sequencer.mem-master-port::system.ruby.l1_cntrl0.sequencer.pio-slave-port           12                       # Packet count per connected master and slave (bytes)
system.iobus.pkt_count_system.ruby.l1_cntrl0.sequencer.mem-master-port::total           24                       # Packet count per connected master and slave (bytes)
system.iobus.pkt_count_system.ruby.l1_cntrl1.sequencer.mem-master-port::system.pc.south_bridge.io_apic.pio            6                       # Packet count per connected master and slave (bytes)
system.iobus.pkt_count_system.ruby.l1_cntrl1.sequencer.mem-master-port::system.pc.com_1.pio          502                       # Packet count per connected master and slave (bytes)
system.iobus.pkt_count_system.ruby.l1_cntrl1.sequencer.mem-master-port::system.ruby.l1_cntrl1.sequencer.pio-slave-port           12                       # Packet count per connected master and slave (bytes)
system.iobus.pkt_count_system.ruby.l1_cntrl1.sequencer.mem-master-port::total          520                       # Packet count per connected master and slave (bytes)
system.iobus.pkt_count_system.ruby.l1_cntrl2.sequencer.mem-master-port::system.pc.south_bridge.ide.pio           68                       # Packet count per connected master and slave (bytes)
system.iobus.pkt_count_system.ruby.l1_cntrl2.sequencer.mem-master-port::system.pc.south_bridge.io_apic.pio           14                       # Packet count per connected master and slave (bytes)
system.iobus.pkt_count_system.ruby.l1_cntrl2.sequencer.mem-master-port::system.pc.com_1.pio          166                       # Packet count per connected master and slave (bytes)
system.iobus.pkt_count_system.ruby.l1_cntrl2.sequencer.mem-master-port::system.ruby.l1_cntrl2.sequencer.pio-slave-port           14                       # Packet count per connected master and slave (bytes)
system.iobus.pkt_count_system.ruby.l1_cntrl2.sequencer.mem-master-port::total          262                       # Packet count per connected master and slave (bytes)
system.iobus.pkt_count_system.ruby.l1_cntrl3.sequencer.mem-master-port::system.pc.south_bridge.io_apic.pio           14                       # Packet count per connected master and slave (bytes)
system.iobus.pkt_count_system.ruby.l1_cntrl3.sequencer.mem-master-port::system.pc.com_1.pio           78                       # Packet count per connected master and slave (bytes)
system.iobus.pkt_count_system.ruby.l1_cntrl3.sequencer.mem-master-port::system.ruby.l1_cntrl3.sequencer.pio-slave-port           18                       # Packet count per connected master and slave (bytes)
system.iobus.pkt_count_system.ruby.l1_cntrl3.sequencer.mem-master-port::total          110                       # Packet count per connected master and slave (bytes)
system.iobus.pkt_count_system.ruby.l1_cntrl4.sequencer.mem-master-port::system.pc.south_bridge.io_apic.pio           14                       # Packet count per connected master and slave (bytes)
system.iobus.pkt_count_system.ruby.l1_cntrl4.sequencer.mem-master-port::system.pc.com_1.pio           22                       # Packet count per connected master and slave (bytes)
system.iobus.pkt_count_system.ruby.l1_cntrl4.sequencer.mem-master-port::system.ruby.l1_cntrl3.sequencer.pio-slave-port            2                       # Packet count per connected master and slave (bytes)
system.iobus.pkt_count_system.ruby.l1_cntrl4.sequencer.mem-master-port::system.ruby.l1_cntrl4.sequencer.pio-slave-port           22                       # Packet count per connected master and slave (bytes)
system.iobus.pkt_count_system.ruby.l1_cntrl4.sequencer.mem-master-port::total           60                       # Packet count per connected master and slave (bytes)
system.iobus.pkt_count_system.ruby.l1_cntrl5.sequencer.mem-master-port::system.pc.south_bridge.io_apic.pio            8                       # Packet count per connected master and slave (bytes)
system.iobus.pkt_count_system.ruby.l1_cntrl5.sequencer.mem-master-port::system.ruby.l1_cntrl5.sequencer.pio-slave-port           14                       # Packet count per connected master and slave (bytes)
system.iobus.pkt_count_system.ruby.l1_cntrl5.sequencer.mem-master-port::total           22                       # Packet count per connected master and slave (bytes)
system.iobus.pkt_count_system.ruby.l1_cntrl6.sequencer.mem-master-port::system.pc.south_bridge.ide.pio           12                       # Packet count per connected master and slave (bytes)
system.iobus.pkt_count_system.ruby.l1_cntrl6.sequencer.mem-master-port::system.ruby.l1_cntrl6.sequencer.pio-slave-port           14                       # Packet count per connected master and slave (bytes)
system.iobus.pkt_count_system.ruby.l1_cntrl6.sequencer.mem-master-port::total           26                       # Packet count per connected master and slave (bytes)
system.iobus.pkt_count_system.ruby.l1_cntrl7.sequencer.mem-master-port::system.pc.south_bridge.ide.pio           46                       # Packet count per connected master and slave (bytes)
system.iobus.pkt_count_system.ruby.l1_cntrl7.sequencer.mem-master-port::system.ruby.l1_cntrl7.sequencer.pio-slave-port           14                       # Packet count per connected master and slave (bytes)
system.iobus.pkt_count_system.ruby.l1_cntrl7.sequencer.mem-master-port::total           60                       # Packet count per connected master and slave (bytes)
system.iobus.pkt_count::total                    1106                       # Packet count per connected master and slave (bytes)
system.iobus.pkt_size_system.pc.south_bridge.io_apic.int_master::system.ruby.l1_cntrl0.sequencer.pio-slave-port            4                       # Cumulative packet size per connected master and slave (bytes)
system.iobus.pkt_size_system.pc.south_bridge.io_apic.int_master::system.ruby.l1_cntrl1.sequencer.pio-slave-port            4                       # Cumulative packet size per connected master and slave (bytes)
system.iobus.pkt_size_system.pc.south_bridge.io_apic.int_master::system.ruby.l1_cntrl2.sequencer.pio-slave-port            8                       # Cumulative packet size per connected master and slave (bytes)
system.iobus.pkt_size_system.pc.south_bridge.io_apic.int_master::system.ruby.l1_cntrl3.sequencer.pio-slave-port            8                       # Cumulative packet size per connected master and slave (bytes)
system.iobus.pkt_size_system.pc.south_bridge.io_apic.int_master::system.ruby.l1_cntrl4.sequencer.pio-slave-port            8                       # Cumulative packet size per connected master and slave (bytes)
system.iobus.pkt_size_system.pc.south_bridge.io_apic.int_master::system.ruby.l1_cntrl5.sequencer.pio-slave-port            4                       # Cumulative packet size per connected master and slave (bytes)
system.iobus.pkt_size_system.pc.south_bridge.io_apic.int_master::system.ruby.l1_cntrl6.sequencer.pio-slave-port            4                       # Cumulative packet size per connected master and slave (bytes)
system.iobus.pkt_size_system.pc.south_bridge.io_apic.int_master::system.ruby.l1_cntrl7.sequencer.pio-slave-port            4                       # Cumulative packet size per connected master and slave (bytes)
system.iobus.pkt_size_system.pc.south_bridge.io_apic.int_master::total           44                       # Cumulative packet size per connected master and slave (bytes)
system.iobus.pkt_size_system.ruby.l1_cntrl0.sequencer.mem-master-port::system.pc.south_bridge.ide.pio            6                       # Cumulative packet size per connected master and slave (bytes)
system.iobus.pkt_size_system.ruby.l1_cntrl0.sequencer.mem-master-port::system.ruby.l1_cntrl0.sequencer.pio-slave-port           24                       # Cumulative packet size per connected master and slave (bytes)
system.iobus.pkt_size_system.ruby.l1_cntrl0.sequencer.mem-master-port::total           30                       # Cumulative packet size per connected master and slave (bytes)
system.iobus.pkt_size_system.ruby.l1_cntrl1.sequencer.mem-master-port::system.pc.south_bridge.io_apic.pio           12                       # Cumulative packet size per connected master and slave (bytes)
system.iobus.pkt_size_system.ruby.l1_cntrl1.sequencer.mem-master-port::system.pc.com_1.pio          251                       # Cumulative packet size per connected master and slave (bytes)
system.iobus.pkt_size_system.ruby.l1_cntrl1.sequencer.mem-master-port::system.ruby.l1_cntrl1.sequencer.pio-slave-port           24                       # Cumulative packet size per connected master and slave (bytes)
system.iobus.pkt_size_system.ruby.l1_cntrl1.sequencer.mem-master-port::total          287                       # Cumulative packet size per connected master and slave (bytes)
system.iobus.pkt_size_system.ruby.l1_cntrl2.sequencer.mem-master-port::system.pc.south_bridge.ide.pio           40                       # Cumulative packet size per connected master and slave (bytes)
system.iobus.pkt_size_system.ruby.l1_cntrl2.sequencer.mem-master-port::system.pc.south_bridge.io_apic.pio           28                       # Cumulative packet size per connected master and slave (bytes)
system.iobus.pkt_size_system.ruby.l1_cntrl2.sequencer.mem-master-port::system.pc.com_1.pio           83                       # Cumulative packet size per connected master and slave (bytes)
system.iobus.pkt_size_system.ruby.l1_cntrl2.sequencer.mem-master-port::system.ruby.l1_cntrl2.sequencer.pio-slave-port           28                       # Cumulative packet size per connected master and slave (bytes)
system.iobus.pkt_size_system.ruby.l1_cntrl2.sequencer.mem-master-port::total          179                       # Cumulative packet size per connected master and slave (bytes)
system.iobus.pkt_size_system.ruby.l1_cntrl3.sequencer.mem-master-port::system.pc.south_bridge.io_apic.pio           28                       # Cumulative packet size per connected master and slave (bytes)
system.iobus.pkt_size_system.ruby.l1_cntrl3.sequencer.mem-master-port::system.pc.com_1.pio           39                       # Cumulative packet size per connected master and slave (bytes)
system.iobus.pkt_size_system.ruby.l1_cntrl3.sequencer.mem-master-port::system.ruby.l1_cntrl3.sequencer.pio-slave-port           36                       # Cumulative packet size per connected master and slave (bytes)
system.iobus.pkt_size_system.ruby.l1_cntrl3.sequencer.mem-master-port::total          103                       # Cumulative packet size per connected master and slave (bytes)
system.iobus.pkt_size_system.ruby.l1_cntrl4.sequencer.mem-master-port::system.pc.south_bridge.io_apic.pio           28                       # Cumulative packet size per connected master and slave (bytes)
system.iobus.pkt_size_system.ruby.l1_cntrl4.sequencer.mem-master-port::system.pc.com_1.pio           11                       # Cumulative packet size per connected master and slave (bytes)
system.iobus.pkt_size_system.ruby.l1_cntrl4.sequencer.mem-master-port::system.ruby.l1_cntrl3.sequencer.pio-slave-port            4                       # Cumulative packet size per connected master and slave (bytes)
system.iobus.pkt_size_system.ruby.l1_cntrl4.sequencer.mem-master-port::system.ruby.l1_cntrl4.sequencer.pio-slave-port           44                       # Cumulative packet size per connected master and slave (bytes)
system.iobus.pkt_size_system.ruby.l1_cntrl4.sequencer.mem-master-port::total           87                       # Cumulative packet size per connected master and slave (bytes)
system.iobus.pkt_size_system.ruby.l1_cntrl5.sequencer.mem-master-port::system.pc.south_bridge.io_apic.pio           16                       # Cumulative packet size per connected master and slave (bytes)
system.iobus.pkt_size_system.ruby.l1_cntrl5.sequencer.mem-master-port::system.ruby.l1_cntrl5.sequencer.pio-slave-port           28                       # Cumulative packet size per connected master and slave (bytes)
system.iobus.pkt_size_system.ruby.l1_cntrl5.sequencer.mem-master-port::total           44                       # Cumulative packet size per connected master and slave (bytes)
system.iobus.pkt_size_system.ruby.l1_cntrl6.sequencer.mem-master-port::system.pc.south_bridge.ide.pio            6                       # Cumulative packet size per connected master and slave (bytes)
system.iobus.pkt_size_system.ruby.l1_cntrl6.sequencer.mem-master-port::system.ruby.l1_cntrl6.sequencer.pio-slave-port           28                       # Cumulative packet size per connected master and slave (bytes)
system.iobus.pkt_size_system.ruby.l1_cntrl6.sequencer.mem-master-port::total           34                       # Cumulative packet size per connected master and slave (bytes)
system.iobus.pkt_size_system.ruby.l1_cntrl7.sequencer.mem-master-port::system.pc.south_bridge.ide.pio           26                       # Cumulative packet size per connected master and slave (bytes)
system.iobus.pkt_size_system.ruby.l1_cntrl7.sequencer.mem-master-port::system.ruby.l1_cntrl7.sequencer.pio-slave-port           28                       # Cumulative packet size per connected master and slave (bytes)
system.iobus.pkt_size_system.ruby.l1_cntrl7.sequencer.mem-master-port::total           54                       # Cumulative packet size per connected master and slave (bytes)
system.iobus.pkt_size::total                      862                       # Cumulative packet size per connected master and slave (bytes)
system.iobus.respLayer11.occupancy              50462                       # Layer occupancy (ticks)
system.iobus.respLayer11.utilization              0.0                       # Layer utilization (%)
system.iobus.respLayer13.occupancy              17602                       # Layer occupancy (ticks)
system.iobus.respLayer13.utilization              0.0                       # Layer utilization (%)
system.iobus.respLayer15.occupancy              21384                       # Layer occupancy (ticks)
system.iobus.respLayer15.utilization              0.0                       # Layer utilization (%)
system.iobus.respLayer17.occupancy              42898                       # Layer occupancy (ticks)
system.iobus.respLayer17.utilization              0.0                       # Layer utilization (%)
system.iobus.reqLayer2.occupancy               157454                       # Layer occupancy (ticks)
system.iobus.reqLayer2.utilization                0.0                       # Layer utilization (%)
system.iobus.reqLayer8.occupancy                63032                       # Layer occupancy (ticks)
system.iobus.reqLayer8.utilization                0.0                       # Layer utilization (%)
system.iobus.power_state.pwrStateResidencyTicks::UNDEFINED  22520980557                       # Cumulative time (in ticks) in various power states
system.iobus.reqLayer19.occupancy               22592                       # Layer occupancy (ticks)
system.iobus.reqLayer19.utilization               0.0                       # Layer utilization (%)
system.iobus.reqLayer17.occupancy               16880                       # Layer occupancy (ticks)
system.iobus.reqLayer17.utilization               0.0                       # Layer utilization (%)
system.iobus.reqLayer12.occupancy              737025                       # Layer occupancy (ticks)
system.iobus.reqLayer12.utilization               0.0                       # Layer utilization (%)
system.iobus.reqLayer18.occupancy               18727                       # Layer occupancy (ticks)
system.iobus.reqLayer18.utilization               0.0                       # Layer utilization (%)
system.iobus.respLayer9.occupancy               97032                       # Layer occupancy (ticks)
system.iobus.respLayer9.utilization               0.0                       # Layer utilization (%)
system.iobus.respLayer5.occupancy              478189                       # Layer occupancy (ticks)
system.iobus.respLayer5.utilization               0.0                       # Layer utilization (%)
system.iobus.respLayer7.occupancy              215290                       # Layer occupancy (ticks)
system.iobus.respLayer7.utilization               0.0                       # Layer utilization (%)
system.iobus.respLayer0.occupancy               15796                       # Layer occupancy (ticks)
system.iobus.respLayer0.utilization               0.0                       # Layer utilization (%)
system.iobus.respLayer3.occupancy               19784                       # Layer occupancy (ticks)
system.iobus.respLayer3.utilization               0.0                       # Layer utilization (%)
system.iobus.reqLayer24.occupancy               19871                       # Layer occupancy (ticks)
system.iobus.reqLayer24.utilization               0.0                       # Layer utilization (%)
system.iobus.reqLayer23.occupancy               20214                       # Layer occupancy (ticks)
system.iobus.reqLayer23.utilization               0.0                       # Layer utilization (%)
system.iobus.reqLayer22.occupancy               20329                       # Layer occupancy (ticks)
system.iobus.reqLayer22.utilization               0.0                       # Layer utilization (%)
system.iobus.reqLayer21.occupancy               33751                       # Layer occupancy (ticks)
system.iobus.reqLayer21.utilization               0.0                       # Layer utilization (%)
system.iobus.reqLayer20.occupancy               30669                       # Layer occupancy (ticks)
system.iobus.reqLayer20.utilization               0.0                       # Layer utilization (%)

---------- End Simulation Statistics   ----------
